<?xml version="1.0" encoding="UTF-8"?>

<!-- generated on 2022-12-06 21:20:32 by Eclipse SUMO netedit Version 1.13.0
<configuration xmlns:xsi="http://www.w3.org/2001/XMLSchema-instance" xsi:noNamespaceSchemaLocation="http://sumo.dlr.de/xsd/netconvertConfiguration.xsd">

    <input>
        <sumo-net-file value="K:\LMD2\Project\MA\workspace\MATSim-SUMO-Co-Simulation-Sequential-Approach\scenario\Leopoldstrasse\sumo\osm.net.xml"/>
    </input>

    <output>
        <output-file value="K:\LMD2\Project\MA\workspace\MATSim-SUMO-Co-Simulation-Sequential-Approach\scenario\Leopoldstrasse\sumo\osm.net.xml"/>
        <output.street-names value="true"/>
    </output>

    <processing>
        <geometry.min-radius.fix.railways value="false"/>
        <geometry.max-grade.fix value="false"/>
        <offset.disable-normalization value="true"/>
        <lefthand value="false"/>
    </processing>

    <junctions>
        <no-turnarounds value="true"/>
        <junctions.corner-detail value="5"/>
        <junctions.limit-turn-speed value="5.5"/>
        <rectangular-lane-cut value="false"/>
    </junctions>

    <pedestrian>
        <walkingareas value="false"/>
    </pedestrian>

    <report>
        <aggregate-warnings value="5"/>
    </report>

</configuration>
-->

<net version="1.9" junctionCornerDetail="5" limitTurnSpeed="5.50" xmlns:xsi="http://www.w3.org/2001/XMLSchema-instance" xsi:noNamespaceSchemaLocation="http://sumo.dlr.de/xsd/net_file.xsd">

    <location netOffset="-691463.61,-5335697.11" convBoundary="0.00,0.00,1374.87,2032.53" origBoundary="11.574733,48.145460,11.592947,48.163793" projParameter="+proj=utm +zone=32 +ellps=WGS84 +datum=WGS84 +units=m +no_defs"/>

    <type id="highway.bridleway" priority="1" numLanes="1" speed="2.78" allow="pedestrian" oneway="1" width="2.00"/>
    <type id="highway.bus_guideway" priority="1" numLanes="1" speed="27.78" allow="bus" oneway="1"/>
    <type id="highway.cycleway" priority="1" numLanes="1" speed="8.33" allow="bicycle" oneway="0" width="1.00"/>
    <type id="highway.footway" priority="1" numLanes="1" speed="2.78" allow="pedestrian" oneway="1" width="2.00"/>
    <type id="highway.ford" priority="1" numLanes="1" speed="2.78" allow="army" oneway="0"/>
    <type id="highway.living_street" priority="2" numLanes="1" speed="2.78" disallow="tram rail_urban rail rail_electric rail_fast ship" oneway="0"/>
    <type id="highway.motorway" priority="14" numLanes="2" speed="39.44" allow="private emergency authority army vip passenger hov taxi bus coach delivery truck trailer motorcycle evehicle custom1 custom2" oneway="1"/>
    <type id="highway.motorway_link" priority="9" numLanes="1" speed="22.22" allow="private emergency authority army vip passenger hov taxi bus coach delivery truck trailer motorcycle evehicle custom1 custom2" oneway="1"/>
    <type id="highway.path" priority="1" numLanes="1" speed="2.78" allow="pedestrian bicycle" oneway="0" width="2.00"/>
    <type id="highway.pedestrian" priority="1" numLanes="1" speed="2.78" allow="pedestrian" oneway="1" width="2.00"/>
    <type id="highway.primary" priority="12" numLanes="2" speed="27.78" disallow="tram rail_urban rail rail_electric rail_fast ship" oneway="0"/>
    <type id="highway.primary_link" priority="7" numLanes="1" speed="22.22" disallow="tram rail_urban rail rail_electric rail_fast ship" oneway="0"/>
    <type id="highway.raceway" priority="15" numLanes="2" speed="83.33" allow="vip" oneway="0"/>
    <type id="highway.residential" priority="3" numLanes="1" speed="13.89" disallow="tram rail_urban rail rail_electric rail_fast ship" oneway="0"/>
    <type id="highway.secondary" priority="11" numLanes="1" speed="27.78" disallow="tram rail_urban rail rail_electric rail_fast ship" oneway="0"/>
    <type id="highway.secondary_link" priority="6" numLanes="1" speed="22.22" disallow="tram rail_urban rail rail_electric rail_fast ship" oneway="0"/>
    <type id="highway.service" priority="1" numLanes="1" speed="5.56" allow="pedestrian delivery bicycle" oneway="0"/>
    <type id="highway.stairs" priority="1" numLanes="1" speed="1.39" allow="pedestrian" oneway="1" width="2.00"/>
    <type id="highway.step" priority="1" numLanes="1" speed="1.39" allow="pedestrian" oneway="1" width="2.00"/>
    <type id="highway.steps" priority="1" numLanes="1" speed="1.39" allow="pedestrian" oneway="1" width="2.00"/>
    <type id="highway.tertiary" priority="10" numLanes="1" speed="22.22" disallow="tram rail_urban rail rail_electric rail_fast ship" oneway="0"/>
    <type id="highway.tertiary_link" priority="5" numLanes="1" speed="22.22" disallow="tram rail_urban rail rail_electric rail_fast ship" oneway="0"/>
    <type id="highway.track" priority="1" numLanes="1" speed="5.56" allow="pedestrian motorcycle moped bicycle" oneway="0"/>
    <type id="highway.trunk" priority="13" numLanes="2" speed="27.78" disallow="pedestrian bicycle tram rail_urban rail rail_electric rail_fast ship" oneway="0"/>
    <type id="highway.trunk_link" priority="8" numLanes="1" speed="22.22" disallow="pedestrian bicycle tram rail_urban rail rail_electric rail_fast ship" oneway="0"/>
    <type id="highway.unclassified" priority="4" numLanes="1" speed="13.89" disallow="tram rail_urban rail rail_electric rail_fast ship" oneway="0"/>
    <type id="highway.unsurfaced" priority="1" numLanes="1" speed="8.33" disallow="tram rail_urban rail rail_electric rail_fast ship" oneway="0"/>
    <type id="railway.highspeed" priority="21" numLanes="1" speed="69.44" allow="rail_fast" oneway="1"/>
    <type id="railway.light_rail" priority="19" numLanes="1" speed="27.78" allow="rail_urban" oneway="1"/>
    <type id="railway.preserved" priority="16" numLanes="1" speed="27.78" allow="rail" oneway="1"/>
    <type id="railway.rail" priority="20" numLanes="1" speed="44.44" allow="rail" oneway="1"/>
    <type id="railway.subway" priority="18" numLanes="1" speed="27.78" allow="rail_urban" oneway="1"/>
    <type id="railway.tram" priority="17" numLanes="1" speed="13.89" allow="tram" oneway="1"/>

    <edge id=":1041430752_0" function="internal">
        <lane id=":1041430752_0_0" index="0" disallow="pedestrian tram rail_urban rail rail_electric rail_fast ship" speed="13.89" length="8.55" shape="489.25,459.90 488.11,457.65 486.64,456.46 485.16,455.27 484.02,453.02"/>
        <lane id=":1041430752_0_1" index="1" disallow="pedestrian tram rail_urban rail rail_electric rail_fast ship" speed="13.89" length="8.55" shape="492.34,459.03 491.20,456.79 489.72,455.60 488.25,454.41 487.11,452.17"/>
        <lane id=":1041430752_0_2" index="2" disallow="pedestrian tram rail_urban rail rail_electric rail_fast ship" speed="13.89" length="8.55" shape="492.34,459.03 490.19,451.32"/>
    </edge>
    <edge id=":1041430752_3" function="internal">
        <lane id=":1041430752_3_0" index="0" disallow="pedestrian tram rail_urban rail rail_electric rail_fast ship" speed="3.65" length="1.44" shape="492.34,459.03 492.78,457.66"/>
    </edge>
    <edge id=":1041430752_8" function="internal">
        <lane id=":1041430752_8_0" index="0" disallow="pedestrian tram rail_urban rail rail_electric rail_fast ship" speed="3.65" length="3.23" shape="492.78,457.66 493.45,457.06 494.32,457.23 495.42,458.17"/>
    </edge>
    <edge id=":1041430752_4" function="internal">
        <lane id=":1041430752_4_0" index="0" disallow="pedestrian tram rail_urban rail rail_electric rail_fast ship" speed="13.89" length="7.99" shape="499.44,448.76 501.58,456.45"/>
        <lane id=":1041430752_4_1" index="1" disallow="pedestrian tram rail_urban rail rail_electric rail_fast ship" speed="13.89" length="7.99" shape="496.36,449.61 498.50,457.31"/>
        <lane id=":1041430752_4_2" index="2" disallow="pedestrian tram rail_urban rail rail_electric rail_fast ship" speed="13.89" length="7.99" shape="493.28,450.47 495.42,458.17"/>
    </edge>
    <edge id=":1041430752_7" function="internal">
        <lane id=":1041430752_7_0" index="0" disallow="pedestrian tram rail_urban rail rail_electric rail_fast ship" speed="3.65" length="1.44" shape="493.28,450.47 492.82,451.84"/>
    </edge>
    <edge id=":1041430752_9" function="internal">
        <lane id=":1041430752_9_0" index="0" disallow="pedestrian tram rail_urban rail rail_electric rail_fast ship" speed="3.65" length="3.23" shape="492.82,451.84 492.16,452.43 491.28,452.26 490.19,451.32"/>
    </edge>
    <edge id=":1078797602_0" function="internal">
        <lane id=":1078797602_0_0" index="0" disallow="tram rail_urban rail rail_electric rail_fast ship" speed="8.33" length="11.74" shape="885.73,1289.05 885.37,1285.85 884.68,1283.33 883.65,1280.89 882.30,1277.92"/>
    </edge>
    <edge id=":1078797602_1" function="internal">
        <lane id=":1078797602_1_0" index="0" disallow="tram rail_urban rail rail_electric rail_fast ship" speed="3.65" length="1.44" shape="885.73,1289.05 886.47,1287.81"/>
    </edge>
    <edge id=":1078797602_4" function="internal">
        <lane id=":1078797602_4_0" index="0" disallow="tram rail_urban rail rail_electric rail_fast ship" speed="3.65" length="3.23" shape="886.47,1287.81 887.25,1287.37 888.07,1287.74 888.93,1288.90"/>
    </edge>
    <edge id=":1078797602_2" function="internal">
        <lane id=":1078797602_2_0" index="0" disallow="tram rail_urban rail rail_electric rail_fast ship" speed="7.26" length="9.26" shape="894.55,1282.46 892.01,1283.54 890.22,1284.98 889.19,1286.76 888.93,1288.90"/>
    </edge>
    <edge id=":1078797602_3" function="internal">
        <lane id=":1078797602_3_0" index="0" disallow="tram rail_urban rail rail_electric rail_fast ship" speed="8.33" length="14.54" shape="894.55,1282.46 890.40,1283.23 886.97,1282.73 884.27,1280.96 882.30,1277.92"/>
    </edge>
    <edge id=":1078797603_0" function="internal">
        <lane id=":1078797603_0_0" index="0" disallow="tram rail_urban rail rail_electric rail_fast ship" speed="8.33" length="10.42" shape="894.59,1259.18 894.67,1262.20 895.23,1264.25 896.41,1266.11 898.32,1268.52"/>
    </edge>
    <edge id=":1078797603_1" function="internal">
        <lane id=":1078797603_1_0" index="0" disallow="tram rail_urban rail rail_electric rail_fast ship" speed="3.65" length="1.44" shape="894.59,1259.18 893.75,1260.36"/>
    </edge>
    <edge id=":1078797603_4" function="internal">
        <lane id=":1078797603_4_0" index="0" disallow="tram rail_urban rail rail_electric rail_fast ship" speed="3.65" length="3.23" shape="893.75,1260.36 892.94,1260.73 892.15,1260.30 891.39,1259.08"/>
    </edge>
    <edge id=":1078797603_2" function="internal">
        <lane id=":1078797603_2_0" index="0" disallow="tram rail_urban rail rail_electric rail_fast ship" speed="6.42" length="7.37" shape="887.97,1264.95 889.40,1264.37 890.45,1263.19 891.12,1261.43 891.39,1259.08"/>
    </edge>
    <edge id=":1078797603_3" function="internal">
        <lane id=":1078797603_3_0" index="0" disallow="tram rail_urban rail rail_electric rail_fast ship" speed="8.33" length="11.53" shape="887.97,1264.95 891.10,1264.73 893.87,1265.26 896.27,1266.52 898.32,1268.52"/>
    </edge>
    <edge id=":1288250871_0" function="internal">
        <lane id=":1288250871_0_0" index="0" disallow="tram rail_urban rail rail_electric rail_fast ship" speed="8.33" length="3.51" shape="626.08,735.47 627.06,735.49 627.72,735.90 628.38,736.31 629.36,736.34"/>
    </edge>
    <edge id=":1288250871_1" function="internal">
        <lane id=":1288250871_1_0" index="0" disallow="tram rail_urban rail rail_electric rail_fast ship" speed="3.65" length="4.67" shape="626.08,735.47 627.44,735.96 628.02,736.64 627.82,737.52 626.85,738.58"/>
    </edge>
    <edge id=":129961873_0" function="internal">
        <lane id=":129961873_0_0" index="0" disallow="tram rail_urban rail rail_electric rail_fast ship" speed="3.65" length="4.67" shape="1373.35,975.95 1374.50,975.07 1375.38,974.94 1376.01,975.58 1376.39,976.97"/>
    </edge>
    <edge id=":1404411555_0" function="internal">
        <lane id=":1404411555_0_0" index="0" disallow="pedestrian tram rail_urban rail rail_electric rail_fast ship" speed="13.89" length="8.00" shape="817.61,1834.41 809.79,1836.10"/>
    </edge>
    <edge id=":1404411555_1" function="internal">
        <lane id=":1404411555_1_0" index="0" disallow="pedestrian tram rail_urban rail rail_electric rail_fast ship" speed="3.65" length="1.44" shape="817.61,1834.41 816.27,1833.88"/>
    </edge>
    <edge id=":1404411555_5" function="internal">
        <lane id=":1404411555_5_0" index="0" disallow="pedestrian tram rail_urban rail rail_electric rail_fast ship" speed="3.65" length="3.23" shape="816.27,1833.88 815.71,1833.18 815.93,1832.31 816.93,1831.28"/>
    </edge>
    <edge id=":1404411555_2" function="internal">
        <lane id=":1404411555_2_0" index="0" disallow="pedestrian tram rail_urban rail rail_electric rail_fast ship" speed="13.89" length="8.40" shape="809.11,1832.97 811.41,1831.96 812.68,1830.56 813.95,1829.16 816.25,1828.15"/>
        <lane id=":1404411555_2_1" index="1" disallow="pedestrian tram rail_urban rail rail_electric rail_fast ship" speed="13.89" length="8.40" shape="809.11,1832.97 816.93,1831.28"/>
    </edge>
    <edge id=":1404411555_4" function="internal">
        <lane id=":1404411555_4_0" index="0" disallow="pedestrian tram rail_urban rail rail_electric rail_fast ship" speed="3.65" length="1.44" shape="809.11,1832.97 810.45,1833.50"/>
    </edge>
    <edge id=":1404411555_6" function="internal">
        <lane id=":1404411555_6_0" index="0" disallow="pedestrian tram rail_urban rail rail_electric rail_fast ship" speed="3.65" length="3.23" shape="810.45,1833.50 811.01,1834.20 810.79,1835.06 809.79,1836.10"/>
    </edge>
    <edge id=":1452374288_0" function="internal">
        <lane id=":1452374288_0_0" index="0" disallow="pedestrian tram rail_urban rail rail_electric rail_fast ship" speed="6.58" length="9.19" shape="821.25,1666.41 820.23,1664.14 818.71,1662.74 816.68,1662.21 814.15,1662.54"/>
    </edge>
    <edge id=":1452374288_1" function="internal">
        <lane id=":1452374288_1_0" index="0" disallow="pedestrian tram rail_urban rail rail_electric rail_fast ship" speed="13.89" length="14.50" shape="821.25,1666.41 817.16,1652.56"/>
        <lane id=":1452374288_1_1" index="1" disallow="pedestrian tram rail_urban rail rail_electric rail_fast ship" speed="13.89" length="14.50" shape="824.33,1665.53 820.22,1651.62"/>
        <lane id=":1452374288_1_2" index="2" disallow="pedestrian tram rail_urban rail rail_electric rail_fast ship" speed="13.89" length="14.50" shape="827.40,1664.66 823.28,1650.68"/>
    </edge>
    <edge id=":1452374288_4" function="internal">
        <lane id=":1452374288_4_0" index="0" disallow="pedestrian tram rail_urban rail rail_electric rail_fast ship" speed="6.44" length="9.04" shape="813.35,1659.44 815.63,1658.45 817.03,1656.97 817.54,1655.01 817.16,1652.56"/>
    </edge>
    <edge id=":1452374288_5" function="internal">
        <lane id=":1452374288_5_0" index="0" disallow="tram rail_urban rail rail_electric rail_fast ship" speed="3.65" length="4.67" shape="813.35,1659.44 814.71,1659.91 815.30,1660.59 815.11,1661.46 814.15,1662.54"/>
    </edge>
    <edge id=":1608583968_0" function="internal">
        <lane id=":1608583968_0_0" index="0" disallow="tram rail_urban rail rail_electric rail_fast ship" speed="8.33" length="9.99" shape="871.57,1200.58 867.95,1191.27"/>
    </edge>
    <edge id=":1608583968_1" function="internal">
        <lane id=":1608583968_1_0" index="0" disallow="tram rail_urban rail rail_electric rail_fast ship" speed="6.91" length="11.11" shape="871.57,1200.58 871.24,1198.17 872.18,1196.14 874.38,1194.49 877.84,1193.24"/>
    </edge>
    <edge id=":1608583968_2" function="internal">
        <lane id=":1608583968_2_0" index="0" disallow="tram rail_urban rail rail_electric rail_fast ship" speed="3.65" length="4.67" shape="871.57,1200.58 871.91,1199.18 872.52,1198.53 873.41,1198.63 874.58,1199.48"/>
    </edge>
    <edge id=":1608583968_3" function="internal">
        <lane id=":1608583968_3_0" index="0" disallow="tram rail_urban rail rail_electric rail_fast ship" speed="6.65" length="8.46" shape="870.91,1190.05 872.04,1191.94 873.57,1193.10 875.51,1193.53 877.84,1193.24"/>
    </edge>
    <edge id=":1608583968_4" function="internal">
        <lane id=":1608583968_4_0" index="0" disallow="tram rail_urban rail rail_electric rail_fast ship" speed="8.33" length="10.12" shape="870.91,1190.05 874.58,1199.48"/>
    </edge>
    <edge id=":1608583968_5" function="internal">
        <lane id=":1608583968_5_0" index="0" disallow="tram rail_urban rail rail_electric rail_fast ship" speed="3.65" length="4.67" shape="870.91,1190.05 870.63,1191.46 870.04,1192.14 869.15,1192.07 867.95,1191.27"/>
    </edge>
    <edge id=":1644583589_0" function="internal">
        <lane id=":1644583589_0_0" index="0" disallow="pedestrian tram rail_urban rail rail_electric rail_fast ship" speed="13.89" length="8.21" shape="860.78,1889.44 861.05,1891.83 861.61,1893.43 862.17,1895.03 862.44,1897.43"/>
        <lane id=":1644583589_0_1" index="1" disallow="pedestrian tram rail_urban rail rail_electric rail_fast ship" speed="13.89" length="8.21" shape="857.58,1889.46 857.85,1891.86 858.41,1893.46 858.97,1895.05 859.24,1897.45"/>
        <lane id=":1644583589_0_2" index="2" disallow="pedestrian tram rail_urban rail rail_electric rail_fast ship" speed="13.89" length="8.21" shape="857.58,1889.46 857.35,1891.86 856.81,1893.47 856.27,1895.07 856.04,1897.47"/>
    </edge>
    <edge id=":1652860049_0" function="internal">
        <lane id=":1652860049_0_0" index="0" disallow="pedestrian tram rail_urban rail rail_electric rail_fast ship" speed="7.04" length="10.01" shape="729.65,1321.66 728.60,1319.43 726.92,1318.01 724.61,1317.40 721.67,1317.59"/>
    </edge>
    <edge id=":1652860049_1" function="internal">
        <lane id=":1652860049_1_0" index="0" disallow="pedestrian tram rail_urban rail rail_electric rail_fast ship" speed="13.89" length="20.85" shape="729.65,1321.66 724.06,1301.57"/>
        <lane id=":1652860049_1_1" index="1" disallow="pedestrian tram rail_urban rail rail_electric rail_fast ship" speed="13.89" length="20.85" shape="732.73,1320.80 727.14,1300.71"/>
    </edge>
    <edge id=":1652860049_3" function="internal">
        <lane id=":1652860049_3_0" index="0" disallow="pedestrian tram rail_urban rail rail_electric rail_fast ship" speed="8.93" length="4.58" shape="732.73,1320.80 732.21,1316.25"/>
    </edge>
    <edge id=":1652860049_4" function="internal">
        <lane id=":1652860049_4_0" index="0" disallow="pedestrian tram rail_urban rail rail_electric rail_fast ship" speed="3.65" length="1.44" shape="732.73,1320.80 733.18,1319.43"/>
    </edge>
    <edge id=":1652860049_18" function="internal">
        <lane id=":1652860049_18_0" index="0" disallow="pedestrian tram rail_urban rail rail_electric rail_fast ship" speed="8.93" length="14.27" shape="732.21,1316.25 732.16,1315.84 733.49,1311.94 736.71,1309.09 741.84,1307.31"/>
    </edge>
    <edge id=":1652860049_19" function="internal">
        <lane id=":1652860049_19_0" index="0" disallow="pedestrian tram rail_urban rail rail_electric rail_fast ship" speed="3.65" length="3.23" shape="733.18,1319.43 733.85,1318.83 734.73,1319.00 735.82,1319.95"/>
    </edge>
    <edge id=":1652860049_5" function="internal">
        <lane id=":1652860049_5_0" index="0" disallow="pedestrian tram rail_urban rail rail_electric rail_fast ship" speed="6.87" length="10.73" shape="742.44,1310.45 740.11,1311.43 738.75,1313.19 738.34,1315.75 738.90,1319.09"/>
    </edge>
    <edge id=":1652860049_6" function="internal">
        <lane id=":1652860049_6_0" index="0" disallow="pedestrian tram rail_urban rail rail_electric rail_fast ship" speed="11.11" length="21.72" shape="742.44,1310.45 721.09,1314.44"/>
    </edge>
    <edge id=":1652860049_7" function="internal">
        <lane id=":1652860049_7_0" index="0" disallow="pedestrian tram rail_urban rail rail_electric rail_fast ship" speed="9.73" length="7.50" shape="742.44,1310.45 737.02,1310.76 735.07,1310.08"/>
    </edge>
    <edge id=":1652860049_8" function="internal">
        <lane id=":1652860049_8_0" index="0" disallow="pedestrian tram rail_urban rail rail_electric rail_fast ship" speed="3.65" length="1.44" shape="742.44,1310.45 741.11,1309.89"/>
    </edge>
    <edge id=":1652860049_20" function="internal">
        <lane id=":1652860049_20_0" index="0" disallow="pedestrian tram rail_urban rail rail_electric rail_fast ship" speed="9.73" length="12.89" shape="735.07,1310.08 732.66,1309.24 729.37,1305.89 727.14,1300.71"/>
    </edge>
    <edge id=":1652860049_21" function="internal">
        <lane id=":1652860049_21_0" index="0" disallow="pedestrian tram rail_urban rail rail_electric rail_fast ship" speed="3.65" length="3.23" shape="741.11,1309.89 740.57,1309.18 740.81,1308.32 741.84,1307.31"/>
    </edge>
    <edge id=":1652860049_9" function="internal">
        <lane id=":1652860049_9_0" index="0" disallow="pedestrian tram rail_urban rail rail_electric rail_fast ship" speed="7.93" length="13.20" shape="733.31,1298.99 734.84,1303.09 736.77,1305.84 739.10,1307.24 741.84,1307.31"/>
    </edge>
    <edge id=":1652860049_10" function="internal">
        <lane id=":1652860049_10_0" index="0" disallow="pedestrian tram rail_urban rail rail_electric rail_fast ship" speed="13.89" length="20.86" shape="733.31,1298.99 738.90,1319.09"/>
        <lane id=":1652860049_10_1" index="1" disallow="pedestrian tram rail_urban rail rail_electric rail_fast ship" speed="13.89" length="20.86" shape="730.23,1299.85 735.82,1319.95"/>
    </edge>
    <edge id=":1652860049_12" function="internal">
        <lane id=":1652860049_12_0" index="0" disallow="pedestrian tram rail_urban rail rail_electric rail_fast ship" speed="9.12" length="4.97" shape="730.23,1299.85 730.86,1304.78"/>
    </edge>
    <edge id=":1652860049_13" function="internal">
        <lane id=":1652860049_13_0" index="0" disallow="pedestrian tram rail_urban rail rail_electric rail_fast ship" speed="3.65" length="1.44" shape="730.23,1299.85 729.78,1301.22"/>
    </edge>
    <edge id=":1652860049_22" function="internal">
        <lane id=":1652860049_22_0" index="0" disallow="pedestrian tram rail_urban rail rail_electric rail_fast ship" speed="9.12" length="15.09" shape="730.86,1304.78 730.94,1305.38 729.65,1309.65 726.37,1312.67 721.09,1314.44"/>
    </edge>
    <edge id=":1652860049_23" function="internal">
        <lane id=":1652860049_23_0" index="0" disallow="pedestrian tram rail_urban rail rail_electric rail_fast ship" speed="3.65" length="3.23" shape="729.78,1301.22 729.12,1301.82 728.24,1301.65 727.14,1300.71"/>
    </edge>
    <edge id=":1652860049_14" function="internal">
        <lane id=":1652860049_14_0" index="0" disallow="pedestrian tram rail_urban rail rail_electric rail_fast ship" speed="6.32" length="9.04" shape="719.95,1308.14 722.32,1307.34 723.80,1305.98 724.38,1304.06 724.06,1301.57"/>
    </edge>
    <edge id=":1652860049_15" function="internal">
        <lane id=":1652860049_15_0" index="0" disallow="pedestrian tram rail_urban rail rail_electric rail_fast ship" speed="11.11" length="21.95" shape="719.95,1308.14 726.83,1307.40 732.75,1307.43 737.74,1307.61 741.84,1307.31"/>
    </edge>
    <edge id=":1652860049_16" function="internal">
        <lane id=":1652860049_16_0" index="0" disallow="pedestrian tram rail_urban rail rail_electric rail_fast ship" speed="9.65" length="5.41" shape="720.52,1311.29 725.92,1311.00"/>
    </edge>
    <edge id=":1652860049_17" function="internal">
        <lane id=":1652860049_17_0" index="0" disallow="tram rail_urban rail rail_electric rail_fast ship" speed="3.65" length="1.44" shape="720.52,1311.29 721.84,1311.86"/>
    </edge>
    <edge id=":1652860049_24" function="internal">
        <lane id=":1652860049_24_0" index="0" disallow="pedestrian tram rail_urban rail rail_electric rail_fast ship" speed="9.65" length="14.24" shape="725.92,1311.00 726.08,1310.99 730.48,1312.34 733.73,1315.32 735.82,1319.95"/>
    </edge>
    <edge id=":1652860049_25" function="internal">
        <lane id=":1652860049_25_0" index="0" disallow="tram rail_urban rail rail_electric rail_fast ship" speed="3.65" length="3.23" shape="721.84,1311.86 722.38,1312.58 722.13,1313.44 721.09,1314.44"/>
    </edge>
    <edge id=":1669909107_0" function="internal">
        <lane id=":1669909107_0_0" index="0" disallow="tram rail_urban rail rail_electric rail_fast ship" speed="8.33" length="11.22" shape="385.21,713.67 381.03,703.26"/>
    </edge>
    <edge id=":1669909107_1" function="internal">
        <lane id=":1669909107_1_0" index="0" disallow="tram rail_urban rail rail_electric rail_fast ship" speed="6.51" length="9.03" shape="385.21,713.67 384.62,711.26 384.95,709.25 386.18,707.62 388.33,706.38"/>
    </edge>
    <edge id=":1669909107_2" function="internal">
        <lane id=":1669909107_2_0" index="0" disallow="tram rail_urban rail rail_electric rail_fast ship" speed="6.48" length="9.03" shape="377.89,710.50 380.05,709.29 381.30,707.67 381.62,705.66 381.03,703.26"/>
    </edge>
    <edge id=":1669909107_3" function="internal">
        <lane id=":1669909107_3_0" index="0" disallow="tram rail_urban rail rail_electric rail_fast ship" speed="8.33" length="11.22" shape="377.89,710.50 388.33,706.38"/>
    </edge>
    <edge id=":1669909114_0" function="internal">
        <lane id=":1669909114_0_0" index="0" disallow="tram rail_urban rail rail_electric rail_fast ship" speed="8.33" length="11.00" shape="379.39,1234.54 378.61,1223.57"/>
    </edge>
    <edge id=":1669909114_1" function="internal">
        <lane id=":1669909114_1_0" index="0" disallow="tram rail_urban rail rail_electric rail_fast ship" speed="3.65" length="4.67" shape="379.39,1234.54 380.09,1233.28 380.85,1232.81 381.68,1233.14 382.58,1234.27"/>
    </edge>
    <edge id=":1669909114_2" function="internal">
        <lane id=":1669909114_2_0" index="0" disallow="tram rail_urban rail rail_electric rail_fast ship" speed="8.33" length="10.91" shape="381.81,1223.38 382.58,1234.27"/>
    </edge>
    <edge id=":1669909114_3" function="internal">
        <lane id=":1669909114_3_0" index="0" disallow="tram rail_urban rail rail_electric rail_fast ship" speed="3.65" length="4.67" shape="381.81,1223.38 381.08,1224.63 380.30,1225.07 379.48,1224.72 378.61,1223.57"/>
    </edge>
    <edge id=":1669909114_4" function="internal">
        <lane id=":1669909114_4_0" index="0" disallow="tram rail_urban rail rail_electric rail_fast ship" speed="6.51" length="8.92" shape="373.44,1229.48 375.83,1228.95 377.48,1227.79 378.41,1226.00 378.61,1223.57"/>
    </edge>
    <edge id=":1669909114_5" function="internal">
        <lane id=":1669909114_5_0" index="0" disallow="tram rail_urban rail rail_electric rail_fast ship" speed="7.26" length="11.61" shape="373.44,1229.48 377.31,1229.53 380.12,1230.34 381.87,1231.92 382.58,1234.27"/>
    </edge>
    <edge id=":1693399457_0" function="internal">
        <lane id=":1693399457_0_0" index="0" disallow="pedestrian tram rail_urban rail rail_electric rail_fast ship" speed="13.89" length="11.80" shape="378.94,1915.58 375.71,1915.93 373.06,1916.13 370.41,1916.22 367.16,1916.22"/>
    </edge>
    <edge id=":1693399457_1" function="internal">
        <lane id=":1693399457_1_0" index="0" disallow="pedestrian tram rail_urban rail rail_electric rail_fast ship" speed="7.33" length="2.54" shape="378.94,1915.58 376.41,1915.31"/>
    </edge>
    <edge id=":1693399457_2" function="internal">
        <lane id=":1693399457_2_0" index="0" disallow="pedestrian tram rail_urban rail rail_electric rail_fast ship" speed="3.65" length="1.44" shape="378.94,1915.58 377.65,1914.93"/>
    </edge>
    <edge id=":1693399457_6" function="internal">
        <lane id=":1693399457_6_0" index="0" disallow="pedestrian tram rail_urban rail rail_electric rail_fast ship" speed="7.33" length="9.36" shape="376.41,1915.31 374.48,1913.85 373.13,1911.18 372.38,1907.31"/>
    </edge>
    <edge id=":1693399457_7" function="internal">
        <lane id=":1693399457_7_0" index="0" disallow="pedestrian tram rail_urban rail rail_electric rail_fast ship" speed="3.65" length="3.23" shape="377.65,1914.93 377.16,1914.18 377.46,1913.34 378.56,1912.40"/>
    </edge>
    <edge id=":1693399457_3" function="internal">
        <lane id=":1693399457_3_0" index="0" disallow="pedestrian tram rail_urban rail rail_electric rail_fast ship" speed="6.29" length="9.04" shape="367.18,1913.02 369.68,1912.68 371.37,1911.61 372.28,1909.82 372.38,1907.31"/>
    </edge>
    <edge id=":1693399457_4" function="internal">
        <lane id=":1693399457_4_0" index="0" disallow="pedestrian tram rail_urban rail rail_electric rail_fast ship" speed="13.89" length="11.40" shape="367.18,1913.02 370.37,1913.02 372.88,1912.95 375.39,1912.75 378.56,1912.40"/>
    </edge>
    <edge id=":1693399457_5" function="internal">
        <lane id=":1693399457_5_0" index="0" disallow="pedestrian tram rail_urban rail rail_electric rail_fast ship" speed="3.65" length="1.44" shape="367.18,1913.02 368.38,1913.83"/>
    </edge>
    <edge id=":1693399457_8" function="internal">
        <lane id=":1693399457_8_0" index="0" disallow="pedestrian tram rail_urban rail rail_electric rail_fast ship" speed="3.65" length="3.23" shape="368.38,1913.83 368.77,1914.63 368.37,1915.43 367.16,1916.22"/>
    </edge>
    <edge id=":1701847425_0" function="internal">
        <lane id=":1701847425_0_0" index="0" disallow="pedestrian tram rail_urban rail rail_electric rail_fast ship" speed="13.89" length="8.21" shape="843.08,1893.46 842.78,1891.07 842.20,1889.47 841.62,1887.88 841.33,1885.48"/>
        <lane id=":1701847425_0_1" index="1" disallow="pedestrian tram rail_urban rail rail_electric rail_fast ship" speed="13.89" length="8.21" shape="846.28,1893.40 845.98,1891.01 845.40,1889.41 844.82,1887.82 844.53,1885.43"/>