<?xml version="1.0" encoding="UTF-8"?>

<!-- generated on 2022-08-16 23:01:25 by Eclipse SUMO netedit Version 1.13.0
<configuration xmlns:xsi="http://www.w3.org/2001/XMLSchema-instance" xsi:noNamespaceSchemaLocation="http://sumo.dlr.de/xsd/netconvertConfiguration.xsd">

    <input>
        <sumo-net-file value="K:\LMD2\Project\MA\workspace\2022-08-05-20-45-43\osm.net.xml"/>
    </input>

    <output>
        <output-file value="K:\LMD2\Project\MA\workspace\2022-08-05-20-45-43\osm.net.xml"/>
        <output.street-names value="true"/>
    </output>

    <processing>
        <geometry.min-radius.fix.railways value="false"/>
        <geometry.max-grade.fix value="false"/>
        <offset.disable-normalization value="true"/>
        <lefthand value="false"/>
    </processing>

    <junctions>
        <no-turnarounds value="true"/>
        <junctions.corner-detail value="5"/>
        <junctions.limit-turn-speed value="5.5"/>
        <rectangular-lane-cut value="false"/>
    </junctions>

    <pedestrian>
        <walkingareas value="false"/>
    </pedestrian>

    <report>
        <aggregate-warnings value="5"/>
    </report>

</configuration>
-->

<net version="1.9" junctionCornerDetail="5" limitTurnSpeed="5.50" xmlns:xsi="http://www.w3.org/2001/XMLSchema-instance" xsi:noNamespaceSchemaLocation="http://sumo.dlr.de/xsd/net_file.xsd">

    <location netOffset="-690379.25,-5335798.70" convBoundary="0.00,0.00,1467.49,1013.57" origBoundary="11.559673,48.146879,11.579505,48.155736" projParameter="+proj=utm +zone=32 +ellps=WGS84 +datum=WGS84 +units=m +no_defs"/>

    <type id="highway.bridleway" priority="1" numLanes="1" speed="2.78" allow="pedestrian" oneway="1" width="2.00"/>
    <type id="highway.bus_guideway" priority="1" numLanes="1" speed="27.78" allow="bus" oneway="1"/>
    <type id="highway.cycleway" priority="1" numLanes="1" speed="8.33" allow="bicycle" oneway="0" width="1.00"/>
    <type id="highway.footway" priority="1" numLanes="1" speed="2.78" allow="pedestrian" oneway="1" width="2.00"/>
    <type id="highway.ford" priority="1" numLanes="1" speed="2.78" allow="army" oneway="0"/>
    <type id="highway.living_street" priority="2" numLanes="1" speed="2.78" disallow="tram rail_urban rail rail_electric rail_fast ship" oneway="0"/>
    <type id="highway.motorway" priority="14" numLanes="2" speed="39.44" allow="private emergency authority army vip passenger hov taxi bus coach delivery truck trailer motorcycle evehicle custom1 custom2" oneway="1"/>
    <type id="highway.motorway_link" priority="9" numLanes="1" speed="22.22" allow="private emergency authority army vip passenger hov taxi bus coach delivery truck trailer motorcycle evehicle custom1 custom2" oneway="1"/>
    <type id="highway.path" priority="1" numLanes="1" speed="2.78" allow="pedestrian bicycle" oneway="0" width="2.00"/>
    <type id="highway.pedestrian" priority="1" numLanes="1" speed="2.78" allow="pedestrian" oneway="1" width="2.00"/>
    <type id="highway.primary" priority="12" numLanes="2" speed="27.78" disallow="tram rail_urban rail rail_electric rail_fast ship" oneway="0"/>
    <type id="highway.primary_link" priority="7" numLanes="1" speed="22.22" disallow="tram rail_urban rail rail_electric rail_fast ship" oneway="0"/>
    <type id="highway.raceway" priority="15" numLanes="2" speed="83.33" allow="vip" oneway="0"/>
    <type id="highway.residential" priority="3" numLanes="1" speed="13.89" disallow="tram rail_urban rail rail_electric rail_fast ship" oneway="0"/>
    <type id="highway.secondary" priority="11" numLanes="1" speed="27.78" disallow="tram rail_urban rail rail_electric rail_fast ship" oneway="0"/>
    <type id="highway.secondary_link" priority="6" numLanes="1" speed="22.22" disallow="tram rail_urban rail rail_electric rail_fast ship" oneway="0"/>
    <type id="highway.service" priority="1" numLanes="1" speed="5.56" allow="pedestrian delivery bicycle" oneway="0"/>
    <type id="highway.stairs" priority="1" numLanes="1" speed="1.39" allow="pedestrian" oneway="1" width="2.00"/>
    <type id="highway.step" priority="1" numLanes="1" speed="1.39" allow="pedestrian" oneway="1" width="2.00"/>
    <type id="highway.steps" priority="1" numLanes="1" speed="1.39" allow="pedestrian" oneway="1" width="2.00"/>
    <type id="highway.tertiary" priority="10" numLanes="1" speed="22.22" disallow="tram rail_urban rail rail_electric rail_fast ship" oneway="0"/>
    <type id="highway.tertiary_link" priority="5" numLanes="1" speed="22.22" disallow="tram rail_urban rail rail_electric rail_fast ship" oneway="0"/>
    <type id="highway.track" priority="1" numLanes="1" speed="5.56" allow="pedestrian motorcycle moped bicycle" oneway="0"/>
    <type id="highway.trunk" priority="13" numLanes="2" speed="27.78" disallow="pedestrian bicycle tram rail_urban rail rail_electric rail_fast ship" oneway="0"/>
    <type id="highway.trunk_link" priority="8" numLanes="1" speed="22.22" disallow="pedestrian bicycle tram rail_urban rail rail_electric rail_fast ship" oneway="0"/>
    <type id="highway.unclassified" priority="4" numLanes="1" speed="13.89" disallow="tram rail_urban rail rail_electric rail_fast ship" oneway="0"/>
    <type id="highway.unsurfaced" priority="1" numLanes="1" speed="8.33" disallow="tram rail_urban rail rail_electric rail_fast ship" oneway="0"/>
    <type id="railway.highspeed" priority="21" numLanes="1" speed="69.44" allow="rail_fast" oneway="1"/>
    <type id="railway.light_rail" priority="19" numLanes="1" speed="27.78" allow="rail_urban" oneway="1"/>
    <type id="railway.preserved" priority="16" numLanes="1" speed="27.78" allow="rail" oneway="1"/>
    <type id="railway.rail" priority="20" numLanes="1" speed="44.44" allow="rail" oneway="1"/>
    <type id="railway.subway" priority="18" numLanes="1" speed="27.78" allow="rail_urban" oneway="1"/>
    <type id="railway.tram" priority="17" numLanes="1" speed="13.89" allow="tram" oneway="1"/>

    <edge id=":1315348781_0" function="internal">
        <lane id=":1315348781_0_0" index="0" disallow="pedestrian tram rail_urban rail rail_electric rail_fast ship" speed="13.89" length="0.10" shape="967.10,239.70 967.10,239.70"/>
        <lane id=":1315348781_0_1" index="1" disallow="pedestrian tram rail_urban rail rail_electric rail_fast ship" speed="13.89" length="0.10" shape="965.96,236.70 965.96,236.70"/>
    </edge>
    <edge id=":13888123_0" function="internal">
        <lane id=":13888123_0_0" index="0" disallow="pedestrian tram rail_urban rail rail_electric rail_fast ship" speed="13.89" length="11.95" shape="239.77,251.49 238.93,247.98 239.04,245.28 239.20,242.74 238.51,239.72"/>
    </edge>
    <edge id=":13888123_1" function="internal">
        <lane id=":13888123_1_0" index="0" disallow="pedestrian tram rail_urban rail rail_electric rail_fast ship" speed="8.05" length="2.78" shape="242.75,250.32 242.56,247.79 242.69,247.58"/>
    </edge>
    <edge id=":13888123_2" function="internal">
        <lane id=":13888123_2_0" index="0" disallow="pedestrian tram rail_urban rail rail_electric rail_fast ship" speed="3.65" length="1.44" shape="242.75,250.32 243.06,248.91"/>
    </edge>
    <edge id=":13888123_9" function="internal">
        <lane id=":13888123_9_0" index="0" disallow="pedestrian tram rail_urban rail rail_electric rail_fast ship" speed="8.05" length="11.68" shape="242.69,247.58 244.02,245.37 247.12,243.07 251.88,240.89"/>
    </edge>
    <edge id=":13888123_10" function="internal">
        <lane id=":13888123_10_0" index="0" disallow="pedestrian tram rail_urban rail rail_electric rail_fast ship" speed="3.65" length="3.23" shape="243.06,248.91 243.66,248.25 244.55,248.33 245.73,249.16"/>
    </edge>
    <edge id=":13888123_3" function="internal">
        <lane id=":13888123_3_0" index="0" disallow="pedestrian tram rail_urban rail rail_electric rail_fast ship" speed="6.67" length="9.37" shape="244.43,237.30 245.75,239.61 247.43,240.97 249.47,241.40 251.88,240.89"/>
    </edge>
    <edge id=":13888123_4" function="internal">
        <lane id=":13888123_4_0" index="0" disallow="pedestrian tram rail_urban rail rail_electric rail_fast ship" speed="13.89" length="12.05" shape="244.43,237.30 245.33,240.83 245.25,243.55 245.08,246.12 245.73,249.16"/>
    </edge>
    <edge id=":13888123_5" function="internal">
        <lane id=":13888123_5_0" index="0" disallow="pedestrian tram rail_urban rail rail_electric rail_fast ship" speed="3.65" length="1.44" shape="241.47,238.51 241.19,239.93"/>
    </edge>
    <edge id=":13888123_11" function="internal">
        <lane id=":13888123_11_0" index="0" disallow="pedestrian tram rail_urban rail rail_electric rail_fast ship" speed="3.65" length="3.23" shape="241.19,239.93 240.60,240.60 239.70,240.53 238.51,239.72"/>
    </edge>
    <edge id=":13888123_6" function="internal">
        <lane id=":13888123_6_0" index="0" disallow="pedestrian tram rail_urban rail rail_electric rail_fast ship" speed="7.21" length="11.61" shape="232.45,248.00 235.90,246.33 238.06,244.39 238.93,242.19 238.51,239.72"/>
    </edge>
    <edge id=":13888123_7" function="internal">
        <lane id=":13888123_7_0" index="0" disallow="tram rail_urban rail rail_electric rail_fast ship" speed="13.89" length="20.69" shape="232.45,248.00 251.88,240.89"/>
    </edge>
    <edge id=":13888123_8" function="internal">
        <lane id=":13888123_8_0" index="0" disallow="pedestrian tram rail_urban rail rail_electric rail_fast ship" speed="8.17" length="14.67" shape="232.45,248.00 237.47,246.50 241.37,246.19 244.12,247.08 245.73,249.16"/>
    </edge>
    <edge id=":1840947345_0" function="internal">
        <lane id=":1840947345_0_0" index="0" disallow="pedestrian tram rail_urban rail rail_electric rail_fast ship" speed="3.65" length="4.67" shape="144.27,0.55 144.60,-0.85 145.22,-1.50 146.10,-1.40 147.27,-0.55"/>
    </edge>
    <edge id=":1954309_0" function="internal">
        <lane id=":1954309_0_0" index="0" disallow="pedestrian tram rail_urban rail rail_electric rail_fast ship" speed="13.89" length="11.22" shape="914.78,828.78 910.63,818.35"/>
    </edge>
    <edge id=":1954309_1" function="internal">
        <lane id=":1954309_1_0" index="0" disallow="pedestrian tram rail_urban rail rail_electric rail_fast ship" speed="7.32" length="2.54" shape="914.78,828.78 914.37,826.27"/>
    </edge>
    <edge id=":1954309_2" function="internal">
        <lane id=":1954309_2_0" index="0" disallow="pedestrian tram rail_urban rail rail_electric rail_fast ship" speed="3.65" length="1.44" shape="914.78,828.78 915.08,827.37"/>
    </edge>
    <edge id=":1954309_6" function="internal">
        <lane id=":1954309_6_0" index="0" disallow="pedestrian tram rail_urban rail rail_electric rail_fast ship" speed="7.32" length="9.23" shape="914.37,826.27 915.25,824.01 917.42,822.02 920.87,820.28"/>
    </edge>
    <edge id=":1954309_7" function="internal">
        <lane id=":1954309_7_0" index="0" disallow="pedestrian tram rail_urban rail rail_electric rail_fast ship" speed="3.65" length="3.23" shape="915.08,827.37 915.67,826.70 916.56,826.77 917.75,827.59"/>
    </edge>
    <edge id=":1954309_3" function="internal">
        <lane id=":1954309_3_0" index="0" disallow="pedestrian tram rail_urban rail rail_electric rail_fast ship" speed="6.51" length="9.01" shape="913.60,817.18 914.82,819.30 916.44,820.53 918.46,820.86 920.87,820.28"/>
    </edge>
    <edge id=":1954309_4" function="internal">
        <lane id=":1954309_4_0" index="0" disallow="pedestrian tram rail_urban rail rail_electric rail_fast ship" speed="13.89" length="11.21" shape="913.60,817.18 917.75,827.59"/>
    </edge>
    <edge id=":1954309_5" function="internal">
        <lane id=":1954309_5_0" index="0" disallow="pedestrian tram rail_urban rail rail_electric rail_fast ship" speed="3.65" length="1.44" shape="913.60,817.18 913.30,818.59"/>
    </edge>
    <edge id=":1954309_8" function="internal">
        <lane id=":1954309_8_0" index="0" disallow="pedestrian tram rail_urban rail rail_electric rail_fast ship" speed="3.65" length="3.23" shape="913.30,818.59 912.71,819.25 911.81,819.18 910.63,818.35"/>
    </edge>
    <edge id=":1954396_0" function="internal">
        <lane id=":1954396_0_0" index="0" disallow="pedestrian tram rail_urban rail rail_electric rail_fast ship" speed="13.89" length="6.15" shape="426.10,444.45 420.35,446.64"/>
    </edge>
    <edge id=":1954396_1" function="internal">
        <lane id=":1954396_1_0" index="0" disallow="pedestrian tram rail_urban rail rail_electric rail_fast ship" speed="5.07" length="4.98" shape="426.10,444.45 424.79,444.73 423.68,444.52 422.79,443.82 422.11,442.62"/>
    </edge>
    <edge id=":1954396_2" function="internal">
        <lane id=":1954396_2_0" index="0" disallow="pedestrian tram rail_urban rail rail_electric rail_fast ship" speed="6.07" length="7.79" shape="425.09,441.44 425.23,442.87 424.49,444.21 422.86,445.46 420.35,446.64"/>
    </edge>
    <edge id=":1954396_3" function="internal">
        <lane id=":1954396_3_0" index="0" disallow="tram rail_urban rail rail_electric rail_fast ship" speed="3.65" length="4.67" shape="425.09,441.44 424.79,442.85 424.19,443.52 423.30,443.44 422.11,442.62"/>
    </edge>
    <edge id=":1954400_0" function="internal">
        <lane id=":1954400_0_0" index="0" disallow="pedestrian tram rail_urban rail rail_electric rail_fast ship" speed="6.67" length="9.42" shape="384.40,607.73 383.07,605.29 381.41,603.81 379.42,603.30 377.09,603.76"/>
    </edge>
    <edge id=":1954400_1" function="internal">
        <lane id=":1954400_1_0" index="0" disallow="pedestrian tram rail_urban rail rail_electric rail_fast ship" speed="8.33" length="11.31" shape="384.40,607.73 380.24,597.21"/>
    </edge>
    <edge id=":1954400_2" function="internal">
        <lane id=":1954400_2_0" index="0" disallow="pedestrian tram rail_urban rail rail_electric rail_fast ship" speed="7.06" length="10.94" shape="384.40,607.73 384.12,605.59 385.08,603.62 387.26,601.83 390.67,600.22"/>
    </edge>
    <edge id=":1954400_3" function="internal">
        <lane id=":1954400_3_0" index="0" disallow="pedestrian tram rail_urban rail rail_electric rail_fast ship" speed="3.65" length="4.67" shape="384.40,607.73 384.70,606.32 385.29,605.65 386.18,605.73 387.37,606.55"/>
    </edge>
    <edge id=":1954400_4" function="internal">
        <lane id=":1954400_4_0" index="0" disallow="pedestrian tram rail_urban rail rail_electric rail_fast ship" speed="6.75" length="9.70" shape="383.21,596.04 384.58,598.59 386.28,600.13 388.31,600.68 390.67,600.22"/>
    </edge>
    <edge id=":1954400_5" function="internal">
        <lane id=":1954400_5_0" index="0" disallow="pedestrian tram rail_urban rail rail_electric rail_fast ship" speed="8.33" length="11.30" shape="383.21,596.04 387.37,606.55"/>
    </edge>
    <edge id=":1954400_6" function="internal">
        <lane id=":1954400_6_0" index="0" disallow="pedestrian tram rail_urban rail rail_electric rail_fast ship" speed="7.10" length="11.06" shape="383.21,596.04 383.53,598.29 382.61,600.33 380.47,602.15 377.09,603.76"/>
    </edge>
    <edge id=":1954400_7" function="internal">
        <lane id=":1954400_7_0" index="0" disallow="pedestrian tram rail_urban rail rail_electric rail_fast ship" speed="3.65" length="4.67" shape="383.21,596.04 382.91,597.45 382.31,598.11 381.42,598.04 380.24,597.21"/>
    </edge>
    <edge id=":1954403_0" function="internal">
        <lane id=":1954403_0_0" index="0" disallow="tram rail_urban rail rail_electric rail_fast ship" speed="6.49" length="8.97" shape="469.97,570.14 472.10,568.96 473.34,567.36 473.70,565.36 473.16,562.94"/>
    </edge>
    <edge id=":1954403_1" function="internal">
        <lane id=":1954403_1_0" index="0" disallow="tram rail_urban rail rail_electric rail_fast ship" speed="8.33" length="11.07" shape="469.97,570.14 480.30,566.16"/>
    </edge>
    <edge id=":1954405_0" function="internal">
        <lane id=":1954405_0_0" index="0" disallow="pedestrian tram rail_urban rail rail_electric rail_fast ship" speed="3.65" length="4.67" shape="495.64,884.90 495.34,886.31 494.74,886.98 493.85,886.90 492.66,886.08"/>
    </edge>
    <edge id=":1954411_0" function="internal">
        <lane id=":1954411_0_0" index="0" disallow="tram rail_urban rail rail_electric rail_fast ship" speed="6.53" length="9.12" shape="1039.54,577.03 1038.32,574.88 1036.69,573.64 1034.64,573.31 1032.19,573.89"/>
    </edge>
    <edge id=":1954411_1" function="internal">
        <lane id=":1954411_1_0" index="0" disallow="pedestrian tram rail_urban rail rail_electric rail_fast ship" speed="13.89" length="14.40" shape="1039.54,577.03 1034.30,563.62"/>
    </edge>
    <edge id=":1954411_2" function="internal">
        <lane id=":1954411_2_0" index="0" disallow="tram rail_urban rail rail_electric rail_fast ship" speed="3.65" length="1.44" shape="1039.54,577.03 1039.85,575.62"/>
    </edge>
    <edge id=":1954411_9" function="internal">
        <lane id=":1954411_9_0" index="0" disallow="tram rail_urban rail rail_electric rail_fast ship" speed="3.65" length="3.23" shape="1039.85,575.62 1040.45,574.96 1041.34,575.04 1042.52,575.86"/>
    </edge>
    <edge id=":1954411_3" function="internal">
        <lane id=":1954411_3_0" index="0" disallow="pedestrian tram rail_urban rail rail_electric rail_fast ship" speed="13.89" length="14.40" shape="1037.28,562.45 1042.52,575.86"/>
    </edge>
    <edge id=":1954411_4" function="internal">
        <lane id=":1954411_4_0" index="0" disallow="pedestrian tram rail_urban rail rail_electric rail_fast ship" speed="8.03" length="4.05" shape="1037.28,562.45 1038.17,566.24 1038.14,566.40"/>
    </edge>
    <edge id=":1954411_5" function="internal">
        <lane id=":1954411_5_0" index="0" disallow="pedestrian tram rail_urban rail rail_electric rail_fast ship" speed="3.65" length="1.44" shape="1037.28,562.45 1036.98,563.86"/>
    </edge>
    <edge id=":1954411_10" function="internal">
        <lane id=":1954411_10_0" index="0" disallow="pedestrian tram rail_urban rail rail_electric rail_fast ship" speed="8.03" length="10.23" shape="1038.14,566.40 1037.61,569.41 1035.62,571.96 1032.19,573.89"/>
    </edge>
    <edge id=":1954411_11" function="internal">
        <lane id=":1954411_11_0" index="0" disallow="pedestrian tram rail_urban rail rail_electric rail_fast ship" speed="3.65" length="3.23" shape="1036.98,563.86 1036.38,564.53 1035.49,564.44 1034.30,563.62"/>
    </edge>
    <edge id=":1954411_6" function="internal">
        <lane id=":1954411_6_0" index="0" disallow="pedestrian tram rail_urban rail rail_electric rail_fast ship" speed="6.59" length="9.30" shape="1030.83,570.99 1033.11,569.72 1034.45,568.07 1034.85,566.04 1034.30,563.62"/>
    </edge>
    <edge id=":1954411_7" function="internal">
        <lane id=":1954411_7_0" index="0" disallow="tram rail_urban rail rail_electric rail_fast ship" speed="8.07" length="14.44" shape="1030.83,570.99 1034.74,570.05 1038.00,570.55 1040.59,572.49 1042.52,575.86"/>
    </edge>
    <edge id=":1954411_8" function="internal">
        <lane id=":1954411_8_0" index="0" disallow="tram rail_urban rail rail_electric rail_fast ship" speed="3.65" length="4.68" shape="1030.83,570.99 1032.26,571.21 1032.96,571.76 1032.94,572.66 1032.19,573.89"/>
    </edge>
    <edge id=":1954425_0" function="internal">
        <lane id=":1954425_0_0" index="0" disallow="tram rail_urban rail rail_electric rail_fast ship" speed="3.65" length="4.67" shape="1209.52,412.23 1210.92,412.56 1211.58,413.17 1211.48,414.06 1210.64,415.23"/>
    </edge>
    <edge id=":1954430_0" function="internal">
        <lane id=":1954430_0_0" index="0" disallow="tram rail_urban rail rail_electric rail_fast ship" speed="13.89" length="11.21" shape="1108.07,752.44 1104.00,742.00"/>
    </edge>
    <edge id=":1954430_1" function="internal">
        <lane id=":1954430_1_0" index="0" disallow="tram rail_urban rail rail_electric rail_fast ship" speed="7.31" length="2.53" shape="1108.07,752.44 1107.69,749.94"/>
    </edge>
    <edge id=":1954430_2" function="internal">
        <lane id=":1954430_2_0" index="0" disallow="tram rail_urban rail rail_electric rail_fast ship" speed="3.65" length="1.44" shape="1108.07,752.44 1108.38,751.04"/>
    </edge>
    <edge id=":1954430_9" function="internal">
        <lane id=":1954430_9_0" index="0" disallow="tram rail_urban rail rail_electric rail_fast ship" speed="7.31" length="9.22" shape="1107.69,749.94 1108.60,747.71 1110.79,745.74 1114.27,744.05"/>
    </edge>
    <edge id=":1954430_10" function="internal">
        <lane id=":1954430_10_0" index="0" disallow="tram rail_urban rail rail_electric rail_fast ship" speed="3.65" length="3.23" shape="1108.38,751.04 1108.98,750.37 1109.87,750.46 1111.05,751.29"/>
    </edge>
    <edge id=":1954430_3" function="internal">
        <lane id=":1954430_3_0" index="0" disallow="tram rail_urban rail rail_electric rail_fast ship" speed="6.54" length="9.06" shape="1106.99,740.84 1108.20,742.99 1109.82,744.24 1111.84,744.59 1114.27,744.05"/>
    </edge>
    <edge id=":1954430_4" function="internal">
        <lane id=":1954430_4_0" index="0" disallow="tram rail_urban rail rail_electric rail_fast ship" speed="13.89" length="11.21" shape="1106.99,740.84 1111.05,751.29"/>
    </edge>
    <edge id=":1954430_5" function="internal">
        <lane id=":1954430_5_0" index="0" disallow="tram rail_urban rail rail_electric rail_fast ship" speed="3.65" length="1.44" shape="1106.99,740.84 1106.68,742.25"/>
    </edge>
    <edge id=":1954430_11" function="internal">
        <lane id=":1954430_11_0" index="0" disallow="tram rail_urban rail rail_electric rail_fast ship" speed="3.65" length="3.23" shape="1106.68,742.25 1106.08,742.91 1105.19,742.83 1104.00,742.00"/>
    </edge>
    <edge id=":1954430_6" function="internal">
        <lane id=":1954430_6_0" index="0" disallow="tram rail_urban rail rail_electric rail_fast ship" speed="6.52" length="9.04" shape="1100.83,749.28 1102.98,748.05 1104.23,746.43 1104.57,744.41 1104.00,742.00"/>
    </edge>
    <edge id=":1954430_7" function="internal">
        <lane id=":1954430_7_0" index="0" disallow="tram rail_urban rail rail_electric rail_fast ship" speed="8.33" length="14.42" shape="1100.83,749.28 1114.27,744.05"/>
    </edge>
    <edge id=":1954430_8" function="internal">
        <lane id=":1954430_8_0" index="0" disallow="tram rail_urban rail rail_electric rail_fast ship" speed="7.31" length="11.73" shape="1100.83,749.28 1104.54,748.19 1107.48,748.16 1109.65,749.19 1111.05,751.29"/>
    </edge>
    <edge id=":1954431_0" function="internal">
        <lane id=":1954431_0_0" index="0" disallow="tram rail_urban rail rail_electric rail_fast ship" speed="3.65" length="4.67" shape="1159.33,883.88 1158.60,885.12 1157.82,885.57 1157.00,885.21 1156.13,884.06"/>
    </edge>
    <edge id=":1955500_0" function="internal">
        <lane id=":1955500_0_0" index="0" disallow="tram rail_urban rail rail_electric rail_fast ship" speed="8.33" length="14.33" shape="659.66,717.31 646.35,722.63"/>
    </edge>
    <edge id=":1955500_1" function="internal">
        <lane id=":1955500_1_0" index="0" disallow="pedestrian tram rail_urban rail rail_electric rail_fast ship" speed="8.00" length="14.16" shape="659.66,717.31 655.89,718.21 652.73,717.69 650.19,715.75 648.26,712.38"/>
    </edge>
    <edge id=":1955500_2" function="internal">
        <lane id=":1955500_2_0" index="0" disallow="tram rail_urban rail rail_electric rail_fast ship" speed="3.65" length="4.67" shape="659.66,717.31 658.25,717.01 657.59,716.41 657.67,715.52 658.49,714.34"/>
    </edge>
    <edge id=":1955500_3" function="internal">
        <lane id=":1955500_3_0" index="0" disallow="pedestrian tram rail_urban rail rail_electric rail_fast ship" speed="6.51" length="9.01" shape="651.23,711.20 652.46,713.34 654.08,714.58 656.09,714.91 658.49,714.34"/>
    </edge>
    <edge id=":1955500_4" function="internal">
        <lane id=":1955500_4_0" index="0" disallow="pedestrian tram rail_urban rail rail_electric rail_fast ship" speed="8.01" length="14.16" shape="651.23,711.20 652.14,714.97 651.63,718.13 649.70,720.69 646.35,722.63"/>
    </edge>
    <edge id=":1955500_5" function="internal">
        <lane id=":1955500_5_0" index="0" disallow="pedestrian tram rail_urban rail rail_electric rail_fast ship" speed="3.65" length="4.67" shape="651.23,711.20 650.93,712.61 650.34,713.28 649.45,713.20 648.26,712.38"/>
    </edge>
    <edge id=":1955500_6" function="internal">
        <lane id=":1955500_6_0" index="0" disallow="pedestrian tram rail_urban rail rail_electric rail_fast ship" speed="6.52" length="9.02" shape="645.15,719.67 647.29,718.43 648.52,716.80 648.84,714.78 648.26,712.38"/>
    </edge>
    <edge id=":1955500_7" function="internal">
        <lane id=":1955500_7_0" index="0" disallow="tram rail_urban rail rail_electric rail_fast ship" speed="8.33" length="14.36" shape="645.15,719.67 658.49,714.34"/>
    </edge>
    <edge id=":1955500_8" function="internal">
        <lane id=":1955500_8_0" index="0" disallow="tram rail_urban rail rail_electric rail_fast ship" speed="3.65" length="4.67" shape="645.15,719.67 646.57,719.96 647.24,720.55 647.17,721.44 646.35,722.63"/>
    </edge>
    <edge id=":1955508_0" function="internal">
        <lane id=":1955508_0_0" index="0" disallow="pedestrian tram rail_urban rail rail_electric rail_fast ship" speed="3.65" length="4.67" shape="991.23,1012.98 990.92,1014.39 990.33,1015.06 989.44,1014.98 988.25,1014.16"/>
    </edge>
    <edge id=":1955535_0" function="internal">
        <lane id=":1955535_0_0" index="0" disallow="tram rail_urban rail rail_electric rail_fast ship" speed="3.65" length="4.67" shape="607.79,839.25 607.36,840.63 606.70,841.24 605.82,841.08 604.71,840.15"/>
    </edge>
    <edge id=":20835091_0" function="internal">
        <lane id=":20835091_0_0" index="0" disallow="pedestrian tram rail_urban rail rail_electric rail_fast ship" speed="6.26" length="8.27" shape="813.60,572.14 812.44,569.94 811.00,568.60 809.28,568.12 807.29,568.51"/>
    </edge>
    <edge id=":20835091_1" function="internal">
        <lane id=":20835091_1_0" index="0" disallow="pedestrian tram rail_urban rail rail_electric rail_fast ship" speed="13.89" length="14.47" shape="813.60,572.14 808.34,558.66"/>
    </edge>
    <edge id=":20835091_2" function="internal">
        <lane id=":20835091_2_0" index="0" disallow="pedestrian tram rail_urban rail rail_electric rail_fast ship" speed="7.77" length="4.06" shape="813.60,572.14 813.22,568.94 813.44,568.14"/>
    </edge>
    <edge id=":20835091_3" function="internal">
        <lane id=":20835091_3_0" index="0" disallow="pedestrian tram rail_urban rail rail_electric rail_fast ship" speed="3.65" length="1.44" shape="813.60,572.14 813.91,570.74"/>
    </edge>
    <edge id=":20835091_16" function="internal">
        <lane id=":20835091_16_0" index="0" disallow="pedestrian tram rail_urban rail rail_electric rail_fast ship" speed="7.77" length="9.41" shape="813.44,568.14 814.14,565.56 816.06,562.63 818.72,560.78"/>
    </edge>
    <edge id=":20835091_17" function="internal">
        <lane id=":20835091_17_0" index="0" disallow="pedestrian tram rail_urban rail rail_electric rail_fast ship" speed="3.65" length="3.23" shape="813.91,570.74 814.51,570.07 815.40,570.15 816.59,570.98"/>
    </edge>
    <edge id=":20835091_4" function="internal">
        <lane id=":20835091_4_0" index="0" disallow="pedestrian tram rail_urban rail rail_electric rail_fast ship" speed="6.48" length="9.02" shape="819.82,563.79 817.64,564.98 816.38,566.57 816.03,568.58 816.59,570.98"/>
    </edge>
    <edge id=":20835091_5" function="internal">
        <lane id=":20835091_5_0" index="0" disallow="pedestrian tram rail_urban rail rail_electric rail_fast ship" speed="13.89" length="13.39" shape="819.82,563.79 807.29,568.51"/>
    </edge>
    <edge id=":20835091_6" function="internal">
        <lane id=":20835091_6_0" index="0" disallow="pedestrian tram rail_urban rail rail_electric rail_fast ship" speed="7.87" length="4.07" shape="819.82,563.79 816.59,564.16 815.80,563.94"/>
    </edge>
    <edge id=":20835091_7" function="internal">
        <lane id=":20835091_7_0" index="0" disallow="pedestrian tram rail_urban rail rail_electric rail_fast ship" speed="3.65" length="1.44" shape="819.82,563.79 818.42,563.45"/>
    </edge>
    <edge id=":20835091_18" function="internal">
        <lane id=":20835091_18_0" index="0" disallow="pedestrian tram rail_urban rail rail_electric rail_fast ship" speed="7.87" length="9.49" shape="815.80,563.94 813.18,563.24 810.23,561.32 808.34,558.66"/>
    </edge>
    <edge id=":20835091_19" function="internal">
        <lane id=":20835091_19_0" index="0" disallow="pedestrian tram rail_urban rail rail_electric rail_fast ship" speed="3.65" length="3.23" shape="818.42,563.45 817.77,562.84 817.87,561.95 818.72,560.78"/>
    </edge>
    <edge id=":20835091_8" function="internal">
        <lane id=":20835091_8_0" index="0" disallow="pedestrian tram rail_urban rail rail_electric rail_fast ship" speed="6.59" length="9.20" shape="811.33,557.50 812.56,559.69 814.20,560.96 816.26,561.33 818.72,560.78"/>
    </edge>
    <edge id=":20835091_9" function="internal">
        <lane id=":20835091_9_0" index="0" disallow="pedestrian tram rail_urban rail rail_electric rail_fast ship" speed="13.89" length="14.47" shape="811.33,557.50 816.59,570.98"/>
    </edge>
    <edge id=":20835091_10" function="internal">
        <lane id=":20835091_10_0" index="0" disallow="pedestrian tram rail_urban rail rail_electric rail_fast ship" speed="7.58" length="4.25" shape="811.33,557.50 811.80,560.56 811.60,561.69"/>
    </edge>
    <edge id=":20835091_11" function="internal">
        <lane id=":20835091_11_0" index="0" disallow="pedestrian tram rail_urban rail rail_electric rail_fast ship" speed="3.65" length="1.44" shape="811.33,557.50 811.02,558.91"/>
    </edge>
    <edge id=":20835091_20" function="internal">