<?xml version="1.0" encoding="UTF-8"?>
<routes>
   <vType accel="3.0" decel="6.0" id="CarA" length="5.0" minGap="2.5" maxSpeed="50.0" sigma="0.5" />

   <vehicle id="1" type="CarA" depart="1877.0" >
      <route edges="134941607#0 134941607#2 134941607#3 "/>

   </vehicle>
   <vehicle id="2" type="CarA" depart="14169.0" >
      <route edges="134941607#0 134941607#2 134941607#3 "/>

   </vehicle>
   <vehicle id="3" type="CarA" depart="14269.0" >
      <route edges="39321855#0 "/>

   </vehicle>
   <vehicle id="4" type="CarA" depart="14283.0" >
      <route edges="392103889#2 "/>

   </vehicle>
   <vehicle id="5" type="CarA" depart="14299.0" >
      <route edges="392103891#1 "/>

   </vehicle>
   <vehicle id="6" type="CarA" depart="14313.0" >
      <route edges="-392088975#0 -392088974#1 "/>

   </vehicle>
   <vehicle id="7" type="CarA" depart="14328.0" >
      <route edges="-392069508#0 -89840558#0 "/>

   </vehicle>
   <vehicle id="8" type="CarA" depart="17076.0" >
      <route edges="376401316#0 376401313 376401312#1 149935566#0 58561799#0 147557400#0 147557400#5 147557400#6 943542795 943542796 392103894#0 392103894#3 "/>

   </vehicle>
   <vehicle id="9" type="CarA" depart="17135.0" >
      <route edges="134941607#0 134941607#2 134941607#3 "/>

   </vehicle>
   <vehicle id="10" type="CarA" depart="17312.0" >
      <route edges="376401316#0 376401313 376401312#1 149935566#0 58561799#0 147557400#0 147557400#5 147557400#6 943542795 943542796 392103894#0 392103894#3 "/>

   </vehicle>
   <vehicle id="11" type="CarA" depart="17731.0" >
      <route edges="-392069506#0 -392069504 "/>

   </vehicle>
   <vehicle id="12" type="CarA" depart="17751.0" >
      <route edges="3845812#0 "/>

   </vehicle>
   <vehicle id="13" type="CarA" depart="18308.0" >
      <route edges="376401316#0 376401313 376401312#1 149935566#0 58561799#0 147557400#0 147557400#5 147557400#6 943542795 943542796 392103894#0 392103894#3 "/>

   </vehicle>
   <vehicle id="14" type="CarA" depart="18372.0" >
      <route edges="51508352#12 "/>

   </vehicle>
   <vehicle id="15" type="CarA" depart="18393.0" >
      <route edges="51508352#9 "/>

   </vehicle>
   <vehicle id="16" type="CarA" depart="18399.0" >
      <route edges="-51508352#7 -51508352#5 "/>

   </vehicle>
   <vehicle id="17" type="CarA" depart="18420.0" >
      <route edges="-51508352#0 -51476080#0 "/>

   </vehicle>
   <vehicle id="18" type="CarA" depart="18475.0" >
      <route edges="134941607#0 134941607#2 134941607#3 "/>

   </vehicle>
   <vehicle id="19" type="CarA" depart="18655.0" >
      <route edges="134941607#0 134941607#2 134941607#3 "/>

   </vehicle>
   <vehicle id="20" type="CarA" depart="18815.0" >
      <route edges="376401316#0 376401313 -3845812#0 "/>

   </vehicle>
   <vehicle id="21" type="CarA" depart="19237.0" >
      <route edges="51508352#2 "/>

   </vehicle>
   <vehicle id="22" type="CarA" depart="19258.0" >
      <route edges="51508352#8 "/>

   </vehicle>
   <vehicle id="23" type="CarA" depart="19264.0" >
      <route edges="51508352#10 51508352#12 "/>

   </vehicle>
   <vehicle id="24" type="CarA" depart="19409.0" >
      <route edges="392088974#0 "/>

   </vehicle>
   <vehicle id="25" type="CarA" depart="19424.0" >
      <route edges="392088975#1 "/>

   </vehicle>
   <vehicle id="26" type="CarA" depart="19438.0" >
      <route edges="392103891#1 "/>

   </vehicle>
   <vehicle id="27" type="CarA" depart="19449.0" >
      <route edges="4645398 "/>

   </vehicle>
   <vehicle id="28" type="CarA" depart="19454.0" >
      <route edges="392103890 "/>

   </vehicle>
   <vehicle id="29" type="CarA" depart="19464.0" >
      <route edges="-40317921#0 147557400#0 147557400#5 147557400#6 943542795 "/>

   </vehicle>
   <vehicle id="30" type="CarA" depart="19518.0" >
      <route edges="49800591#0 "/>

   </vehicle>
   <vehicle id="31" type="CarA" depart="19635.0" >
      <route edges="313577316#0 313577317#0 313577318#0 313577318#2 943542796 392103894#0 392103894#3 "/>

   </vehicle>
   <vehicle id="32" type="CarA" depart="19761.0" >
      <route edges="134941607#0 134941607#2 134941607#3 "/>

   </vehicle>
   <vehicle id="33" type="CarA" depart="19817.0" >
      <route edges="-39321855#1 -39321855#0 "/>

   </vehicle>
   <vehicle id="34" type="CarA" depart="19837.0" >
      <route edges="51508352#2 "/>

   </vehicle>
   <vehicle id="35" type="CarA" depart="19847.0" >
      <route edges="392103889#2 "/>

   </vehicle>
   <vehicle id="36" type="CarA" depart="19858.0" >
      <route edges="51508352#8 "/>

   </vehicle>
   <vehicle id="37" type="CarA" depart="19863.0" >
      <route edges="392103891#1 "/>

   </vehicle>
   <vehicle id="38" type="CarA" depart="19864.0" >
      <route edges="51508352#10 51508352#12 "/>

   </vehicle>
   <vehicle id="39" type="CarA" depart="19877.0" >
      <route edges="-392088975#0 -392088974#1 "/>

   </vehicle>
   <vehicle id="40" type="CarA" depart="19892.0" >
      <route edges="-392069508#0 -89840558#0 "/>

   </vehicle>
   <vehicle id="41" type="CarA" depart="19968.0" >
      <route edges="51508352#12 "/>

   </vehicle>
   <vehicle id="42" type="CarA" depart="19989.0" >
      <route edges="51508352#9 "/>

   </vehicle>
   <vehicle id="43" type="CarA" depart="19995.0" >
      <route edges="-51508352#7 -51508352#5 "/>

   </vehicle>
   <vehicle id="44" type="CarA" depart="20016.0" >
      <route edges="-51508352#0 149935566#0 58561799#0 147557400#0 147557400#5 147557400#6 943542795 "/>

   </vehicle>
   <vehicle id="45" type="CarA" depart="20118.0" >
      <route edges="49800591#0 "/>

   </vehicle>
   <vehicle id="46" type="CarA" depart="20121.0" >
      <route edges="134941607#0 134941607#2 134941607#3 "/>

   </vehicle>
   <vehicle id="47" type="CarA" depart="20537.0" >
      <route edges="-39321855#1 -39321855#0 -93195119#0 "/>

   </vehicle>
   <vehicle id="48" type="CarA" depart="20656.0" >
      <route edges="134941607#0 134941607#2 134941607#3 "/>

   </vehicle>
   <vehicle id="49" type="CarA" depart="20718.0" >
      <route edges="49800591#0 "/>

   </vehicle>
   <vehicle id="50" type="CarA" depart="20850.0" >
      <route edges="4645400 "/>

   </vehicle>
   <vehicle id="51" type="CarA" depart="20874.0" >
      <route edges="134941607#0 134941607#2 134941607#3 "/>

   </vehicle>
   <vehicle id="52" type="CarA" depart="21012.0" >
      <route edges="-39321855#1 -39321855#0 "/>

   </vehicle>
   <vehicle id="53" type="CarA" depart="21072.0" >
      <route edges="39321855#0 "/>

   </vehicle>
   <vehicle id="54" type="CarA" depart="21103.0" >
      <route edges="34114237#0 "/>

   </vehicle>
   <vehicle id="55" type="CarA" depart="21144.0" >
      <route edges="89840550#3 "/>

   </vehicle>
   <vehicle id="56" type="CarA" depart="21167.0" >
      <route edges="392103889#2 "/>

   </vehicle>
   <vehicle id="57" type="CarA" depart="21183.0" >
      <route edges="392103891#1 "/>

   </vehicle>
   <vehicle id="58" type="CarA" depart="21191.0" >
      <route edges="376401316#0 376401313 376401312#1 149935566#0 58561799#0 147557400#0 147557400#5 147557400#6 943542795 943542796 392103894#0 392103894#3 "/>

   </vehicle>
   <vehicle id="59" type="CarA" depart="21197.0" >
      <route edges="-392088975#0 -392088974#1 "/>

   </vehicle>
   <vehicle id="60" type="CarA" depart="21212.0" >
      <route edges="-392069508#0 -89840558#0 "/>

   </vehicle>
   <vehicle id="61" type="CarA" depart="21254.0" >
      <route edges="51508352#12 "/>

   </vehicle>
   <vehicle id="62" type="CarA" depart="21275.0" >
      <route edges="51508352#9 "/>

   </vehicle>
   <vehicle id="63" type="CarA" depart="21275.0" >
      <route edges="51508352#12 "/>

   </vehicle>
   <vehicle id="64" type="CarA" depart="21281.0" >
      <route edges="-51508352#7 -51508352#5 "/>

   </vehicle>
   <vehicle id="65" type="CarA" depart="21302.0" >
      <route edges="-51508352#0 149935566#0 58561799#0 -943542797#0 "/>

   </vehicle>
   <vehicle id="66" type="CarA" depart="21360.0" >
      <route edges="51508352#2 "/>

   </vehicle>
   <vehicle id="67" type="CarA" depart="21371.0" >
      <route edges="376401316#0 376401313 376401312#1 149935566#0 58561799#0 147557400#0 147557400#5 147557400#6 943542795 943542796 392103894#0 392103894#3 "/>

   </vehicle>
   <vehicle id="68" type="CarA" depart="21381.0" >
      <route edges="51508352#8 "/>

   </vehicle>
   <vehicle id="69" type="CarA" depart="21387.0" >
      <route edges="51508352#10 51508352#12 "/>

   </vehicle>
   <vehicle id="70" type="CarA" depart="21419.0" >
      <route edges="40317922#0 "/>

   </vehicle>
   <vehicle id="71" type="CarA" depart="21635.0" >
      <route edges="51508352#9 "/>

   </vehicle>
   <vehicle id="72" type="CarA" depart="21641.0" >
      <route edges="-51508352#7 -51508352#5 "/>

   </vehicle>
   <vehicle id="73" type="CarA" depart="21662.0" >
      <route edges="-51508352#0 -51476080#0 "/>

   </vehicle>
   <vehicle id="74" type="CarA" depart="21767.0" >
      <route edges="392103889#2 "/>

   </vehicle>
   <vehicle id="75" type="CarA" depart="21951.0" >
      <route edges="16786179#4 51508352#2 392088975#1 "/>

   </vehicle>
   <vehicle id="76" type="CarA" depart="21975.0" >
      <route edges="392103891#1 "/>

   </vehicle>
   <vehicle id="77" type="CarA" depart="21991.0" >
      <route edges="392103890 "/>

   </vehicle>
   <vehicle id="78" type="CarA" depart="22021.0" >
      <route edges="376401316#0 376401313 376401312#1 149935566#0 58561799#0 147557400#0 147557400#5 147557400#6 943542795 943542796 392103894#0 392103894#3 "/>

   </vehicle>
   <vehicle id="79" type="CarA" depart="22348.0" >
      <route edges="134941607#0 134941607#2 134941607#3 "/>

   </vehicle>
   <vehicle id="80" type="CarA" depart="22390.0" >
      <route edges="4645399 147557400#5 147557400#6 943542795 943542796 392103894#0 392103894#3 "/>

   </vehicle>
   <vehicle id="81" type="CarA" depart="22598.0" >
      <route edges="134941607#0 134941607#2 134941607#3 "/>

   </vehicle>
   <vehicle id="82" type="CarA" depart="22837.0" >
      <route edges="51508352#2 "/>

   </vehicle>
   <vehicle id="83" type="CarA" depart="22858.0" >
      <route edges="51508352#8 "/>

   </vehicle>
   <vehicle id="84" type="CarA" depart="22864.0" >
      <route edges="51508352#10 4071768#0 4071768#1 154470138#0 "/>

   </vehicle>
   <vehicle id="85" type="CarA" depart="23001.0" >
      <route edges="4645399 147557400#5 147557400#6 943542795 "/>

   </vehicle>
   <vehicle id="86" type="CarA" depart="23036.0" >
      <route edges="49800591#0 "/>

   </vehicle>
   <vehicle id="87" type="CarA" depart="23081.0" >
      <route edges="376401316#0 376401313 34114237#0 "/>

   </vehicle>
   <vehicle id="88" type="CarA" depart="23108.0" >
      <route edges="392088974#0 "/>

   </vehicle>
   <vehicle id="89" type="CarA" depart="23218.0" >
      <route edges="51508352#8 "/>

   </vehicle>
   <vehicle id="90" type="CarA" depart="23224.0" >
      <route edges="51508352#10 51508352#12 "/>

   </vehicle>
   <vehicle id="91" type="CarA" depart="23255.0" >
      <route edges="89840550#3 "/>

   </vehicle>
   <vehicle id="92" type="CarA" depart="23341.0" >
      <route edges="-39321855#1 -39321855#0 "/>

   </vehicle>
   <vehicle id="93" type="CarA" depart="23362.0" >
      <route edges="392103889#2 "/>

   </vehicle>
   <vehicle id="94" type="CarA" depart="23378.0" >
      <route edges="392103891#1 "/>

   </vehicle>
   <vehicle id="95" type="CarA" depart="23392.0" >
      <route edges="-392088975#0 -392088974#1 "/>

   </vehicle>
   <vehicle id="96" type="CarA" depart="23407.0" >
      <route edges="-392069508#0 -392069506#0 -392069504 "/>

   </vehicle>
   <vehicle id="97" type="CarA" depart="23429.0" >
      <route edges="3845812#0 "/>

   </vehicle>
   <vehicle id="98" type="CarA" depart="23574.0" >
      <route edges="313577316#0 313577317#0 313577318#0 "/>

   </vehicle>
   <vehicle id="99" type="CarA" depart="23595.0" >
      <route edges="134941607#0 134941607#2 134941607#3 "/>

   </vehicle>
   <vehicle id="100" type="CarA" depart="23854.0" >
      <route edges="-89840550#2 -89840550#0 -392069505 -34130309#0 -89840558#0 "/>

   </vehicle>
   <vehicle id="101" type="CarA" depart="23886.0" >
      <route edges="-39321855#1 -39321855#0 "/>

   </vehicle>
   <vehicle id="102" type="CarA" depart="23932.0" >
      <route edges="376401316#0 376401313 376401312#1 149935566#0 58561799#0 147557400#0 147557400#5 147557400#6 943542795 943542796 392103894#0 392103894#3 "/>

   </vehicle>
   <vehicle id="103" type="CarA" depart="23962.0" >
      <route edges="392103889#2 "/>

   </vehicle>
   <vehicle id="104" type="CarA" depart="23978.0" >
      <route edges="392103891#1 "/>

   </vehicle>
   <vehicle id="105" type="CarA" depart="23992.0" >
      <route edges="-392088975#0 -392088974#1 "/>

   </vehicle>
   <vehicle id="106" type="CarA" depart="24007.0" >
      <route edges="-392069508#0 -89840558#0 "/>

   </vehicle>
   <vehicle id="107" type="CarA" depart="24052.0" >
      <route edges="392103891#1 "/>

   </vehicle>
   <vehicle id="108" type="CarA" depart="24132.0" >
      <route edges="376401316#0 376401313 376401312#1 149935566#0 58561799#0 147557400#0 147557400#5 147557400#6 943542795 943542796 392103894#0 392103894#3 "/>

   </vehicle>
   <vehicle id="109" type="CarA" depart="24208.0" >
      <route edges="392103890 -93195119#0 "/>

   </vehicle>
   <vehicle id="110" type="CarA" depart="24238.0" >
      <route edges="39321856#1 "/>

   </vehicle>
   <vehicle id="111" type="CarA" depart="24261.0" >
      <route edges="93195119#0 "/>

   </vehicle>
   <vehicle id="112" type="CarA" depart="24264.0" >
      <route edges="49800591#0 "/>

   </vehicle>
   <vehicle id="113" type="CarA" depart="24312.0" >
      <route edges="376401316#0 376401313 376401312#1 149935566#0 58561799#0 147557400#0 147557400#5 147557400#6 943542795 943542796 392103894#0 392103894#3 "/>

   </vehicle>
   <vehicle id="114" type="CarA" depart="24522.0" >
      <route edges="376401316#0 376401313 376401312#1 149935566#0 58561799#0 147557400#0 147557400#5 147557400#6 943542795 943542796 392103894#0 392103894#3 "/>

   </vehicle>
   <vehicle id="115" type="CarA" depart="24534.0" >
      <route edges="155041000 "/>

   </vehicle>
   <vehicle id="116" type="CarA" depart="24554.0" >
      <route edges="152130806#1 "/>

   </vehicle>
   <vehicle id="117" type="CarA" depart="24582.0" >
      <route edges="16786179#4 134929400#0 4262211#0 "/>

   </vehicle>
   <vehicle id="118" type="CarA" depart="24601.0" >
      <route edges="-51508352#0 -51476080#0 "/>

   </vehicle>
   <vehicle id="119" type="CarA" depart="24654.0" >
      <route edges="313577316#0 134941607#2 134941607#3 "/>

   </vehicle>
   <vehicle id="120" type="CarA" depart="24702.0" >
      <route edges="376401316#0 376401313 376401312#1 149935566#0 58561799#0 147557400#0 147557400#5 147557400#6 943542795 943542796 392103894#0 392103894#3 "/>

   </vehicle>
   <vehicle id="121" type="CarA" depart="24717.0" >
      <route edges="51508352#2 "/>

   </vehicle>
   <vehicle id="122" type="CarA" depart="24738.0" >
      <route edges="51508352#8 "/>

   </vehicle>
   <vehicle id="123" type="CarA" depart="24744.0" >
      <route edges="51508352#10 51508352#12 "/>

   </vehicle>
   <vehicle id="124" type="CarA" depart="24852.0" >
      <route edges="4645392#3 4645392#0 40317922#0 "/>

   </vehicle>
   <vehicle id="125" type="CarA" depart="24926.0" >
      <route edges="147557400#0 147557400#5 147557400#6 943542795 "/>

   </vehicle>
   <vehicle id="126" type="CarA" depart="24994.0" >
      <route edges="89840550#3 "/>

   </vehicle>
   <vehicle id="127" type="CarA" depart="25032.0" >
      <route edges="51508352#12 "/>

   </vehicle>
   <vehicle id="128" type="CarA" depart="25048.0" >
      <route edges="4071768#0 4071768#1 -89840550#2 -89840550#0 -392069505 -34130309#0 -392069506#0 -392069504 "/>

   </vehicle>
   <vehicle id="129" type="CarA" depart="25062.0" >
      <route edges="376401316#0 376401313 376401312#1 149935566#0 58561799#0 147557400#0 147557400#5 147557400#6 943542795 943542796 392103894#0 392103894#3 "/>

   </vehicle>
   <vehicle id="130" type="CarA" depart="25077.0" >
      <route edges="51508352#2 "/>

   </vehicle>
   <vehicle id="131" type="CarA" depart="25098.0" >
      <route edges="51508352#8 "/>

   </vehicle>
   <vehicle id="132" type="CarA" depart="25104.0" >
      <route edges="51508352#10 51508352#12 "/>

   </vehicle>
   <vehicle id="133" type="CarA" depart="25115.0" >
      <route edges="3845812#0 "/>

   </vehicle>
   <vehicle id="134" type="CarA" depart="25190.0" >
      <route edges="39321856#1 "/>

   </vehicle>
   <vehicle id="135" type="CarA" depart="25203.0" >
      <route edges="4498577#0 -4262225#0 "/>

   </vehicle>
   <vehicle id="136" type="CarA" depart="25212.0" >
      <route edges="-51508352#7 -51508352#5 "/>

   </vehicle>
   <vehicle id="137" type="CarA" depart="25213.0" >
      <route edges="93195119#0 "/>

   </vehicle>
   <vehicle id="138" type="CarA" depart="25233.0" >
      <route edges="-51508352#0 -51476080#0 "/>

   </vehicle>
   <vehicle id="139" type="CarA" depart="25312.0" >
      <route edges="376401316#0 376401313 376401312#1 149935566#0 58561799#0 147557400#0 147557400#5 147557400#6 943542795 943542796 392103894#0 392103894#3 "/>

   </vehicle>
   <vehicle id="140" type="CarA" depart="25463.0" >
      <route edges="49800591#0 "/>

   </vehicle>
   <vehicle id="141" type="CarA" depart="25593.0" >
      <route edges="-51508352#0 149935566#0 58561799#0 -943542797#0 "/>

   </vehicle>
   <vehicle id="142" type="CarA" depart="25594.0" >
      <route edges="89840550#3 "/>

   </vehicle>
   <vehicle id="143" type="CarA" depart="25630.0" >
      <route edges="40317922#0 "/>

   </vehicle>
   <vehicle id="144" type="CarA" depart="25653.0" >
      <route edges="16786175#0 "/>

   </vehicle>
   <vehicle id="145" type="CarA" depart="25717.0" >
      <route edges="51508352#12 "/>

   </vehicle>
   <vehicle id="146" type="CarA" depart="25733.0" >
      <route edges="4071768#0 4262211#5 "/>

   </vehicle>
   <vehicle id="147" type="CarA" depart="25734.0" >
      <route edges="313577316#0 313577317#0 313577318#0 313577318#2 943542796 392103894#0 392103894#3 "/>

   </vehicle>
   <vehicle id="148" type="CarA" depart="25984.0" >
      <route edges="134941607#0 134941607#2 134941607#3 "/>

   </vehicle>
   <vehicle id="149" type="CarA" depart="26063.0" >
      <route edges="49800591#0 "/>

   </vehicle>
   <vehicle id="150" type="CarA" depart="26142.0" >
      <route edges="376401316#0 376401313 -3845812#0 "/>

   </vehicle>
   <vehicle id="151" type="CarA" depart="26164.0" >
      <route edges="134941607#0 134941607#2 134941607#3 "/>

   </vehicle>
   <vehicle id="152" type="CarA" depart="26242.0" >
      <route edges="39321855#1 "/>

   </vehicle>
   <vehicle id="153" type="CarA" depart="26298.0" >
      <route edges="93195119#0 "/>

   </vehicle>
   <vehicle id="154" type="CarA" depart="26344.0" >
      <route edges="51508352#9 "/>

   </vehicle>
   <vehicle id="155" type="CarA" depart="26344.0" >
      <route edges="134941607#0 134941607#2 134941607#3 "/>

   </vehicle>
   <vehicle id="156" type="CarA" depart="26350.0" >
      <route edges="-51508352#7 -51508352#5 "/>

   </vehicle>
   <vehicle id="157" type="CarA" depart="26371.0" >
      <route edges="-51508352#0 -51476080#0 "/>

   </vehicle>
   <vehicle id="158" type="CarA" depart="26453.0" >
      <route edges="4645399 147557400#5 "/>

   </vehicle>
   <vehicle id="159" type="CarA" depart="26468.0" >
      <route edges="4645392#0 40317922#0 "/>

   </vehicle>
   <vehicle id="160" type="CarA" depart="26602.0" >
      <route edges="-39321855#1 -155040996#3 16786182#0 "/>

   </vehicle>
   <vehicle id="161" type="CarA" depart="26638.0" >
      <route edges="376401316#0 376401313 376401312#1 149935566#0 58561799#0 147557400#0 147557400#5 147557400#6 943542795 943542796 392103894#0 392103894#3 "/>

   </vehicle>
   <vehicle id="162" type="CarA" depart="26663.0" >
      <route edges="49800591#0 "/>

   </vehicle>
   <vehicle id="163" type="CarA" depart="26783.0" >
      <route edges="51508352#2 "/>

   </vehicle>
   <vehicle id="164" type="CarA" depart="26804.0" >
      <route edges="51508352#8 "/>

   </vehicle>
   <vehicle id="165" type="CarA" depart="26810.0" >
      <route edges="51508352#10 51508352#12 "/>

   </vehicle>
   <vehicle id="166" type="CarA" depart="26962.0" >
      <route edges="-89840550#2 -89840550#0 -392069505 -34130309#0 -392069506#0 -392069504 "/>

   </vehicle>
   <vehicle id="167" type="CarA" depart="26998.0" >
      <route edges="376401316#0 376401313 376401312#1 149935566#0 58561799#0 147557400#0 147557400#5 147557400#6 943542795 943542796 392103894#0 392103894#3 "/>

   </vehicle>
   <vehicle id="168" type="CarA" depart="27003.0" >
      <route edges="376401312#1 149935566#0 58561799#0 147557400#0 147557400#5 147557400#6 943542795 943542796 392103894#0 392103894#3 "/>

   </vehicle>
   <vehicle id="169" type="CarA" depart="27159.0" >
      <route edges="134941607#0 134941607#2 134941607#3 "/>

   </vehicle>
   <vehicle id="170" type="CarA" depart="27174.0" >
      <route edges="313577316#0 134941607#2 134941607#3 "/>

   </vehicle>
   <vehicle id="171" type="CarA" depart="27178.0" >
      <route edges="376401316#0 376401313 376401312#1 149935566#0 58561799#0 147557400#0 147557400#5 147557400#6 943542795 943542796 392103894#0 392103894#3 "/>

   </vehicle>
   <vehicle id="172" type="CarA" depart="27255.0" >
      <route edges="51508352#12 "/>

   </vehicle>
   <vehicle id="173" type="CarA" depart="27263.0" >
      <route edges="49800591#0 "/>

   </vehicle>
   <vehicle id="174" type="CarA" depart="27276.0" >
      <route edges="51508352#9 "/>

   </vehicle>
   <vehicle id="175" type="CarA" depart="27282.0" >
      <route edges="-51508352#7 -51508352#5 -392088975#0 -392088974#1 "/>

   </vehicle>
   <vehicle id="176" type="CarA" depart="27309.0" >
      <route edges="-392069508#0 -392069506#0 -392069504 "/>

   </vehicle>
   <vehicle id="177" type="CarA" depart="27454.0" >
      <route edges="392088974#0 4262211#2 -53530907#1 "/>

   </vehicle>
   <vehicle id="178" type="CarA" depart="27489.0" >
      <route edges="51508352#8 "/>

   </vehicle>
   <vehicle id="179" type="CarA" depart="27495.0" >
      <route edges="51508352#10 51508352#12 "/>

   </vehicle>
   <vehicle id="180" type="CarA" depart="27504.0" >
      <route edges="51508352#2 "/>

   </vehicle>
   <vehicle id="181" type="CarA" depart="27603.0" >
      <route edges="3845812#0 "/>

   </vehicle>
   <vehicle id="182" type="CarA" depart="27711.0" >
      <route edges="134941607#0 134941607#2 134941607#3 "/>

   </vehicle>
   <vehicle id="183" type="CarA" depart="27721.0" >
      <route edges="717957944 16786182#0 "/>

   </vehicle>
   <vehicle id="184" type="CarA" depart="27849.0" >
      <route edges="51508352#8 "/>

   </vehicle>
   <vehicle id="185" type="CarA" depart="27855.0" >
      <route edges="51508352#10 51508352#12 "/>

   </vehicle>
   <vehicle id="186" type="CarA" depart="27964.0" >
      <route edges="51508352#12 "/>

   </vehicle>
   <vehicle id="187" type="CarA" depart="28006.0" >
      <route edges="-89840550#2 -89840550#0 -392069505 "/>

   </vehicle>
   <vehicle id="188" type="CarA" depart="28052.0" >
      <route edges="-392069506#0 -392069504 "/>

   </vehicle>
   <vehicle id="189" type="CarA" depart="28071.0" >
      <route edges="134941607#0 134941607#2 134941607#3 "/>

   </vehicle>
   <vehicle id="190" type="CarA" depart="28203.0" >
      <route edges="3845812#0 "/>

   </vehicle>
   <vehicle id="191" type="CarA" depart="28335.0" >
      <route edges="51508352#12 "/>

   </vehicle>
   <vehicle id="192" type="CarA" depart="28421.0" >
      <route edges="376401316#0 376401313 376401312#1 149935566#0 58561799#0 147557400#0 147557400#5 147557400#6 943542795 943542796 392103894#0 392103894#3 "/>

   </vehicle>
   <vehicle id="193" type="CarA" depart="28478.0" >
      <route edges="-39321855#1 -39321855#0 "/>

   </vehicle>
   <vehicle id="194" type="CarA" depart="28508.0" >
      <route edges="392103889#2 "/>

   </vehicle>
   <vehicle id="195" type="CarA" depart="28524.0" >
      <route edges="392103891#1 "/>

   </vehicle>
   <vehicle id="196" type="CarA" depart="28547.0" >
      <route edges="-51508352#0 -51476080#0 "/>

   </vehicle>
   <vehicle id="197" type="CarA" depart="28589.0" >
      <route edges="134941607#0 134941607#2 134941607#3 "/>

   </vehicle>
   <vehicle id="198" type="CarA" depart="28606.0" >
      <route edges="-89840550#2 -89840550#0 -392069505 -34130309#0 -392069506#0 -392069504 "/>

   </vehicle>
   <vehicle id="199" type="CarA" depart="28672.0" >
      <route edges="89840550#3 "/>

   </vehicle>
   <vehicle id="200" type="CarA" depart="28803.0" >
      <route edges="3845812#0 "/>

   </vehicle>
   <vehicle id="201" type="CarA" depart="28830.0" >
      <route edges="39321855#0 "/>

   </vehicle>
   <vehicle id="202" type="CarA" depart="28939.0" >
      <route edges="39321856#1 "/>

   </vehicle>
   <vehicle id="203" type="CarA" depart="28962.0" >
      <route edges="-93195119#0 16786179#0 4645399 "/>

   </vehicle>
   <vehicle id="204" type="CarA" depart="29108.0" >
      <route edges="392103889#2 "/>

   </vehicle>
   <vehicle id="205" type="CarA" depart="29124.0" >
      <route edges="392103891#1 "/>

   </vehicle>
   <vehicle id="206" type="CarA" depart="29141.0" >
      <route edges="376401316#0 376401313 376401312#1 "/>

   </vehicle>
   <vehicle id="207" type="CarA" depart="29147.0" >
      <route edges="134929400#0 134929400#2 "/>

   </vehicle>
   <vehicle id="208" type="CarA" depart="29160.0" >
      <route edges="154470138#0 "/>

   </vehicle>
   <vehicle id="209" type="CarA" depart="29172.0" >
      <route edges="51508352#2 392088975#1 "/>

   </vehicle>
   <vehicle id="210" type="CarA" depart="29195.0" >
      <route edges="392103891#1 "/>

   </vehicle>
   <vehicle id="211" type="CarA" depart="29206.0" >
      <route edges="-89840550#2 -89840550#0 -392069505 -34130309#0 "/>

   </vehicle>
   <vehicle id="212" type="CarA" depart="29211.0" >
      <route edges="392103890 -93195119#0 16786179#0 4645399 "/>

   </vehicle>
   <vehicle id="213" type="CarA" depart="29229.0" >
      <route edges="392088974#0 "/>

   </vehicle>
   <vehicle id="214" type="CarA" depart="29244.0" >
      <route edges="392088975#1 "/>

   </vehicle>
   <vehicle id="215" type="CarA" depart="29321.0" >
      <route edges="376401316#0 376401313 376401312#1 149935566#0 58561799#0 147557400#0 147557400#5 147557400#6 943542795 943542796 392103894#0 392103894#3 "/>

   </vehicle>
   <vehicle id="216" type="CarA" depart="29403.0" >
      <route edges="376401312#1 -51476080#0 "/>

   </vehicle>
   <vehicle id="217" type="CarA" depart="29441.0" >
      <route edges="155041000 "/>

   </vehicle>
   <vehicle id="218" type="CarA" depart="29461.0" >
      <route edges="152130806#1 "/>

   </vehicle>
   <vehicle id="219" type="CarA" depart="29501.0" >
      <route edges="376401316#0 376401313 376401312#1 149935566#0 58561799#0 147557400#0 147557400#5 147557400#6 943542795 943542796 392103894#0 392103894#3 "/>

   </vehicle>
   <vehicle id="220" type="CarA" depart="29503.0" >
      <route edges="134941607#0 "/>

   </vehicle>
   <vehicle id="221" type="CarA" depart="29529.0" >
      <route edges="155041000 "/>

   </vehicle>
   <vehicle id="222" type="CarA" depart="29546.0" >
      <route edges="4645400 "/>

   </vehicle>
   <vehicle id="223" type="CarA" depart="29557.0" >
      <route edges="89840550#3 "/>

   </vehicle>
   <vehicle id="224" type="CarA" depart="29724.0" >
      <route edges="392103891#1 "/>

   </vehicle>
   <vehicle id="225" type="CarA" depart="29747.0" >
      <route edges="134929400#0 134929400#2 "/>

   </vehicle>
   <vehicle id="226" type="CarA" depart="29781.0" >
      <route edges="134941607#0 134941607#2 134941607#3 "/>

   </vehicle>
   <vehicle id="227" type="CarA" depart="29795.0" >
      <route edges="392103891#1 "/>

   </vehicle>
   <vehicle id="228" type="CarA" depart="29811.0" >
      <route edges="392103890 "/>

   </vehicle>
   <vehicle id="229" type="CarA" depart="29828.0" >
      <route edges="392088974#0 "/>

   </vehicle>
   <vehicle id="230" type="CarA" depart="29844.0" >
      <route edges="392088975#1 "/>

   </vehicle>
   <vehicle id="231" type="CarA" depart="29861.0" >
      <route edges="376401316#0 376401313 376401312#1 149935566#0 58561799#0 147557400#0 147557400#5 147557400#6 943542795 16786175#0 717957944 "/>

   </vehicle>
   <vehicle id="232" type="CarA" depart="29917.0" >
      <route edges="51508352#9 "/>

   </vehicle>
   <vehicle id="233" type="CarA" depart="29923.0" >
      <route edges="51508352#7 "/>

   </vehicle>
   <vehicle id="234" type="CarA" depart="29940.0" >
      <route edges="53530907#3 -34130309#0 -392069506#0 -392069504 "/>

   </vehicle>
   <vehicle id="235" type="CarA" depart="30003.0" >
      <route edges="3845812#0 "/>

   </vehicle>
   <vehicle id="236" type="CarA" depart="30030.0" >
      <route edges="39321855#0 "/>

   </vehicle>
   <vehicle id="237" type="CarA" depart="30041.0" >
      <route edges="376401316#0 376401313 34114237#0 "/>

   </vehicle>
   <vehicle id="238" type="CarA" depart="30044.0" >
      <route edges="392103889#2 "/>

   </vehicle>
   <vehicle id="239" type="CarA" depart="30061.0" >
      <route edges="152130806#1 "/>

   </vehicle>
   <vehicle id="240" type="CarA" depart="30089.0" >
      <route edges="-40317921#0 -943542797#0 "/>

   </vehicle>
   <vehicle id="241" type="CarA" depart="30116.0" >
      <route edges="40317922#0 "/>

   </vehicle>
   <vehicle id="242" type="CarA" depart="30157.0" >
      <route edges="89840550#3 "/>

   </vehicle>
   <vehicle id="243" type="CarA" depart="30221.0" >
      <route edges="376401316#0 376401313 376401312#1 149935566#0 58561799#0 147557400#0 147557400#5 147557400#6 943542795 943542796 392103894#0 392103894#3 "/>
